SandboxData_C2S7_20210305/C2S7N02312/scenario_013/case.raw
0,100.0,33,0,0,50.0
GRID OPTIMIZATION COMPETITION CHALLENGE 2
INPUT DATA FILES ARE RAW JSON CON
1,'            ',345.0,1,1,1,1,0.78631046,-48.87678936,2.2,0.45,2.2,0.45
2,'            ',345.0,1,1,1,1,0.7861209,-48.87786981,2.2,0.45,2.2,0.45
3,'            ',345.0,1,1,1,1,0.77633747,-45.88629907,2.2,0.45,2.2,0.45
4,'            ',345.0,1,1,1,1,0.77639564,-45.87769527,2.2,0.45,2.2,0.45
5,'            ',345.0,1,1,1,1,0.78365684,-47.58810237,2.2,0.45,2.2,0.45
6,'            ',345.0,1,1,1,1,0.7838266,-47.57892838,2.2,0.45,2.2,0.45
7,'            ',345.0,1,1,1,1,0.7624009,-47.50173056,2.2,0.45,2.2,0.45
8,'            ',345.0,1,1,1,1,0.76246392,-47.49311944,2.2,0.45,2.2,0.45
9,'            ',345.0,1,1,1,1,0.77851691,-48.91796415,2.2,0.45,2.2,0.45
10,'            ',345.0,1,1,1,1,0.77855935,-48.90866382,2.2,0.45,2.2,0.45
11,'            ',138.0,1,1,1,1,0.7197922,-47.72354322,2.2,0.45,2.2,0.45
12,'            ',138.0,1,1,1,1,0.74376629,-48.62056223,2.2,0.45,2.2,0.45
13,'            ',138.0,1,1,1,1,0.77570223,-47.71152851,2.2,0.45,2.2,0.45
14,'            ',138.0,1,1,1,1,0.76137434,-49.19334807,2.2,0.45,2.2,0.45
15,'            ',138.0,1,1,1,1,0.75874378,-47.36451163,2.2,0.45,2.2,0.45
16,'            ',138.0,1,1,1,1,0.7587457,-47.36427226,2.2,0.45,2.2,0.45
17,'            ',138.0,1,1,1,1,0.76173682,-47.67243259,2.2,0.45,2.2,0.45
18,'            ',138.0,1,1,1,1,0.76628621,-46.51853951,2.2,0.45,2.2,0.45
19,'            ',138.0,1,1,1,1,0.76635917,-46.49888357,2.2,0.45,2.2,0.45
20,'            ',138.0,1,1,1,1,0.76236955,-47.6155008,2.2,0.45,2.2,0.45
21,'            ',138.0,1,1,1,1,0.75771976,-49.10184809,2.2,0.45,2.2,0.45
22,'            ',138.0,1,1,1,1,0.75790319,-49.0860674,2.2,0.45,2.2,0.45
23,'            ',138.0,1,1,1,1,0.71789825,-49.77234964,2.2,0.45,2.2,0.45
24,'            ',138.0,2,1,1,1,0.84750873,-46.29659732,2.2,0.45,2.2,0.45
25,'            ',138.0,1,1,1,1,0.74398191,-48.15675556,2.2,0.45,2.2,0.45
26,'            ',138.0,1,1,1,1,0.74385435,-48.14870495,2.2,0.45,2.2,0.45
27,'            ',138.0,1,1,1,1,0.76003998,-47.47118148,2.2,0.45,2.2,0.45
28,'            ',138.0,1,1,1,1,0.76023426,-47.45783719,2.2,0.45,2.2,0.45
29,'            ',138.0,1,1,1,1,0.76164993,-47.21074323,2.2,0.45,2.2,0.45
30,'            ',138.0,1,1,1,1,0.7616657,-47.20950698,2.2,0.45,2.2,0.45
31,'            ',138.0,1,1,1,1,0.78527164,-52.18588492,2.2,0.45,2.2,0.45
32,'            ',138.0,1,1,1,1,0.78544958,-52.20505053,2.2,0.45,2.2,0.45
33,'            ',138.0,1,1,1,1,0.76965793,-45.89789089,2.2,0.45,2.2,0.45
34,'            ',138.0,1,1,1,1,0.76983811,-45.88667258,2.2,0.45,2.2,0.45
35,'            ',138.0,1,1,1,1,0.74891236,-47.89826289,2.2,0.45,2.2,0.45
36,'            ',138.0,1,1,1,1,0.74997086,-47.84140546,2.2,0.45,2.2,0.45
37,'            ',138.0,1,1,1,1,0.74891913,-47.8976884,2.2,0.45,2.2,0.45
38,'            ',138.0,1,1,1,1,0.7499708,-47.84140346,2.2,0.45,2.2,0.45
39,'            ',138.0,1,1,1,1,0.78598356,-53.08492364,2.2,0.45,2.2,0.45
40,'            ',138.0,1,1,1,1,0.75768594,-47.94394623,2.2,0.45,2.2,0.45
41,'            ',138.0,1,1,1,1,0.75752302,-47.95291739,2.2,0.45,2.2,0.45
42,'            ',138.0,1,1,1,1,0.73610089,-46.66183339,2.2,0.45,2.2,0.45
43,'            ',138.0,1,1,1,1,0.73612386,-46.65960318,2.2,0.45,2.2,0.45
44,'            ',138.0,1,1,1,1,0.75371429,-49.28136133,2.2,0.45,2.2,0.45
45,'            ',138.0,1,1,1,1,0.75377861,-49.29863343,2.2,0.45,2.2,0.45
46,'            ',138.0,2,1,1,1,0.78347406,-47.65554475,2.2,0.45,2.2,0.45
47,'            ',138.0,1,1,1,1,0.77800153,-51.05953716,2.2,0.45,2.2,0.45
48,'            ',138.0,1,1,1,1,0.77789765,-51.06199049,2.2,0.45,2.2,0.45
49,'            ',138.0,1,1,1,1,0.7876454,-51.18536744,2.2,0.45,2.2,0.45
50,'            ',138.0,1,1,1,1,0.79073461,-51.10719457,2.2,0.45,2.2,0.45
51,'            ',138.0,1,1,1,1,0.7907346,-51.10719432,2.2,0.45,2.2,0.45
52,'            ',138.0,1,1,1,1,0.7660688,-50.59345382,2.2,0.45,2.2,0.45
53,'            ',138.0,1,1,1,1,0.76140696,-46.47968213,2.2,0.45,2.2,0.45
54,'            ',138.0,1,1,1,1,0.76030465,-47.1774983,2.2,0.45,2.2,0.45
55,'            ',138.0,1,1,1,1,0.76024096,-47.19461667,2.2,0.45,2.2,0.45
56,'            ',138.0,1,1,1,1,0.79133114,-51.21270611,2.2,0.45,2.2,0.45
57,'            ',138.0,1,1,1,1,0.79092776,-51.17665794,2.2,0.45,2.2,0.45
58,'            ',138.0,1,1,1,1,0.75847102,-47.37649691,2.2,0.45,2.2,0.45
59,'            ',138.0,1,1,1,1,0.77687078,-47.63000553,2.2,0.45,2.2,0.45
60,'            ',138.0,1,1,1,1,0.77501596,-51.07970178,2.2,0.45,2.2,0.45
61,'            ',138.0,1,1,1,1,0.77503138,-51.07796649,2.2,0.45,2.2,0.45
62,'            ',138.0,1,1,1,1,0.76629417,-46.51772685,2.2,0.45,2.2,0.45
63,'            ',138.0,1,1,1,1,0.76636387,-46.49843435,2.2,0.45,2.2,0.45
64,'            ',138.0,1,1,1,1,0.75923079,-47.34132817,2.2,0.45,2.2,0.45
65,'            ',138.0,1,1,1,1,0.76166806,-47.20625016,2.2,0.45,2.2,0.45
66,'            ',138.0,1,1,1,1,0.79302128,-51.86373029,2.2,0.45,2.2,0.45
67,'            ',138.0,1,1,1,1,0.79341306,-51.87766417,2.2,0.45,2.2,0.45
68,'            ',138.0,2,1,1,1,0.77618938,-45.1217033,2.2,0.45,2.2,0.45
69,'            ',138.0,1,1,1,1,0.77993596,-51.01169557,2.2,0.45,2.2,0.45
70,'            ',138.0,1,1,1,1,0.75128072,-49.6013748,2.2,0.45,2.2,0.45
71,'            ',345.0,1,1,1,1,0.61081281,-74.12556266,2.2,0.45,2.2,0.45
72,'            ',345.0,1,1,1,1,0.61081281,-74.12556266,2.2,0.45,2.2,0.45
73,'            ',345.0,1,1,1,1,0.69979853,-52.55560254,2.2,0.45,2.2,0.45
74,'            ',345.0,1,1,1,1,0.69979853,-52.55560254,2.2,0.45,2.2,0.45
75,'            ',345.0,1,1,1,1,0.60950122,-73.15338845,2.2,0.45,2.2,0.45
76,'            ',345.0,2,1,1,1,0.60955336,-73.17581333,2.2,0.45,2.2,0.45
77,'            ',500.0,2,1,1,1,0.52981158,-75.2471149,2.2,0.45,2.2,0.45
78,'            ',345.0,2,1,1,1,0.81812463,-48.83046835,2.2,0.45,2.2,0.45
79,'            ',345.0,1,1,1,1,0.59937083,-72.8648436,2.2,0.45,2.2,0.45
80,'            ',345.0,1,1,1,1,0.59937083,-72.8648436,2.2,0.45,2.2,0.45
81,'            ',345.0,1,1,1,1,0.60765705,-74.13598444,2.2,0.45,2.2,0.45
82,'            ',345.0,1,1,1,1,0.60765662,-74.13459904,2.2,0.45,2.2,0.45
83,'            ',138.0,1,1,1,1,0.52944812,-75.25046954,2.2,0.45,2.2,0.45
84,'            ',138.0,1,1,1,1,0.6397806,-56.73333667,2.2,0.45,2.2,0.45
85,'            ',138.0,1,1,1,1,0.54528153,-72.76515579,2.2,0.45,2.2,0.45
86,'            ',138.0,1,1,1,1,0.55134249,-67.2652492,2.2,0.45,2.2,0.45
87,'            ',138.0,1,1,1,1,0.63696023,-70.86536426,2.2,0.45,2.2,0.45
88,'            ',138.0,1,1,1,1,0.76831683,-61.73233253,2.2,0.45,2.2,0.45
89,'            ',138.0,1,1,1,1,0.55739457,-74.77530968,2.2,0.45,2.2,0.45
90,'            ',138.0,1,1,1,1,0.81470091,-55.02100922,2.2,0.45,2.2,0.45
91,'            ',138.0,1,1,1,1,0.75895541,-63.74124126,2.2,0.45,2.2,0.45
92,'            ',138.0,1,1,1,1,0.54518429,-72.74746419,2.2,0.45,2.2,0.45
93,'            ',138.0,1,1,1,1,0.54518429,-72.74746419,2.2,0.45,2.2,0.45
94,'            ',138.0,1,1,1,1,0.5941448,-75.72934912,2.2,0.45,2.2,0.45
95,'            ',138.0,1,1,1,1,0.55892036,-81.1208719,2.2,0.45,2.2,0.45
96,'            ',138.0,1,1,1,1,0.51839892,-75.18557843,2.2,0.45,2.2,0.45
97,'            ',138.0,1,1,1,1,0.51857405,-75.20514904,2.2,0.45,2.2,0.45
98,'            ',138.0,1,1,1,1,0.71701536,-47.38280533,2.2,0.45,2.2,0.45
99,'            ',138.0,2,1,1,1,0.68123744,-46.73044153,2.2,0.45,2.2,0.45
100,'            ',138.0,1,1,1,1,0.55600654,-76.69609845,2.2,0.45,2.2,0.45
101,'            ',138.0,1,1,1,1,0.54715213,-73.28586612,2.2,0.45,2.2,0.45
102,'            ',138.0,1,1,1,1,0.52657505,-75.53470865,2.2,0.45,2.2,0.45
103,'            ',138.0,1,1,1,1,0.71503866,-47.69216944,2.2,0.45,2.2,0.45
104,'            ',138.0,1,1,1,1,0.56655026,-79.00525527,2.2,0.45,2.2,0.45
105,'            ',138.0,1,1,1,1,0.54592564,-72.7932506,2.2,0.45,2.2,0.45
106,'            ',138.0,1,1,1,1,0.59689564,-71.12110087,2.2,0.45,2.2,0.45
107,'            ',138.0,1,1,1,1,0.78636466,-58.93954161,2.2,0.45,2.2,0.45
108,'            ',138.0,1,1,1,1,0.5213271,-75.26649579,2.2,0.45,2.2,0.45
109,'            ',138.0,1,1,1,1,0.59635587,-73.87072344,2.2,0.45,2.2,0.45
110,'            ',138.0,1,1,1,1,0.62148173,-73.10027788,2.2,0.45,2.2,0.45
111,'            ',138.0,1,1,1,1,0.56742225,-77.36302558,2.2,0.45,2.2,0.45
112,'            ',138.0,1,1,1,1,0.59810524,-73.64395568,2.2,0.45,2.2,0.45
113,'            ',138.0,1,1,1,1,0.63930488,-70.4721962,2.2,0.45,2.2,0.45
114,'            ',138.0,1,1,1,1,0.63146617,-58.19064168,2.2,0.45,2.2,0.45
115,'            ',138.0,1,1,1,1,0.65535453,-54.61932236,2.2,0.45,2.2,0.45
116,'            ',138.0,1,1,1,1,0.57088764,-78.17010734,2.2,0.45,2.2,0.45
117,'            ',138.0,1,1,1,1,0.5572411,-82.46367786,2.2,0.45,2.2,0.45
118,'            ',138.0,1,1,1,1,0.52363659,-75.38823985,2.2,0.45,2.2,0.45
119,'            ',138.0,1,1,1,1,0.61193825,-74.08409818,2.2,0.45,2.2,0.45
120,'            ',138.0,1,1,1,1,0.62081449,-75.54528031,2.2,0.45,2.2,0.45
121,'            ',138.0,1,1,1,1,0.62056752,-75.54355611,2.2,0.45,2.2,0.45
122,'            ',138.0,1,1,1,1,0.51971571,-75.87627159,2.2,0.45,2.2,0.45
123,'            ',138.0,1,1,1,1,0.55531136,-75.29185538,2.2,0.45,2.2,0.45
124,'            ',138.0,1,1,1,1,0.53160675,-75.18249662,2.2,0.45,2.2,0.45
125,'            ',138.0,1,1,1,1,0.53166063,-75.1739229,2.2,0.45,2.2,0.45
126,'            ',138.0,1,1,1,1,0.60851809,-64.48121721,2.2,0.45,2.2,0.45
127,'            ',138.0,1,1,1,1,0.57425061,-77.6660302,2.2,0.45,2.2,0.45
128,'            ',138.0,1,1,1,1,0.57426428,-77.68194638,2.2,0.45,2.2,0.45
129,'            ',138.0,1,1,1,1,0.51830952,-75.19371765,2.2,0.45,2.2,0.45
130,'            ',138.0,1,1,1,1,0.63873376,-70.53061789,2.2,0.45,2.2,0.45
131,'            ',138.0,1,1,1,1,0.5974868,-73.71212935,2.2,0.45,2.2,0.45
132,'            ',138.0,1,1,1,1,0.57104851,-78.25987094,2.2,0.45,2.2,0.45
133,'            ',138.0,1,1,1,1,0.56954588,-78.35402027,2.2,0.45,2.2,0.45
134,'            ',138.0,1,1,1,1,0.57006659,-78.28494627,2.2,0.45,2.2,0.45
135,'            ',138.0,2,1,1,1,0.74276582,-67.54331901,2.2,0.45,2.2,0.45
136,'            ',138.0,1,1,1,1,0.53932321,-75.10285716,2.2,0.45,2.2,0.45
137,'            ',138.0,1,1,1,1,0.51773481,-75.26601196,2.2,0.45,2.2,0.45
138,'            ',138.0,1,1,1,1,0.55792554,-81.90447635,2.2,0.45,2.2,0.45
139,'            ',138.0,1,1,1,1,0.52621527,-75.40554769,2.2,0.45,2.2,0.45
140,'            ',138.0,1,1,1,1,0.54669591,-70.73576884,2.2,0.45,2.2,0.45
141,'            ',138.0,1,1,1,1,0.63615222,-71.00079696,2.2,0.45,2.2,0.45
142,'            ',138.0,1,1,1,1,0.57156779,-78.19115741,2.2,0.45,2.2,0.45
143,'            ',138.0,1,1,1,1,0.65600564,-54.44686982,2.2,0.45,2.2,0.45
144,'            ',138.0,1,1,1,1,0.55272753,-74.87299666,2.2,0.45,2.2,0.45
145,'            ',138.0,1,1,1,1,0.59731251,-72.26222185,2.2,0.45,2.2,0.45
146,'            ',138.0,1,1,1,1,0.55465493,-75.75484841,2.2,0.45,2.2,0.45
147,'            ',138.0,1,1,1,1,0.55259018,-74.88877482,2.2,0.45,2.2,0.45
148,'            ',138.0,1,1,1,1,0.51687109,-75.86983798,2.2,0.45,2.2,0.45
149,'            ',138.0,1,1,1,1,0.55573222,-73.95286809,2.2,0.45,2.2,0.45
150,'            ',345.0,1,1,1,1,0.60529205,-76.21406652,2.2,0.45,2.2,0.45
151,'            ',345.0,1,1,1,1,0.85485578,-70.27675737,2.2,0.45,2.2,0.45
152,'            ',500.0,1,1,1,1,0.95026228,-69.73740677,2.2,0.45,2.2,0.45
153,'            ',500.0,1,1,1,1,0.95063181,-69.75286064,2.2,0.45,2.2,0.45
154,'            ',500.0,1,1,1,1,0.87161001,-64.82211105,2.2,0.45,2.2,0.45
155,'            ',500.0,1,1,1,1,0.87194088,-64.7997667,2.2,0.45,2.2,0.45
156,'            ',500.0,1,1,1,1,0.8490585,-64.91008124,2.2,0.45,2.2,0.45
157,'            ',345.0,1,1,1,1,0.72674934,-61.788257,2.2,0.45,2.2,0.45
158,'            ',500.0,1,1,1,1,0.81179105,-65.95370346,2.2,0.45,2.2,0.45
159,'            ',500.0,1,1,1,1,0.81179105,-65.95370346,2.2,0.45,2.2,0.45
160,'            ',500.0,1,1,1,1,0.90702858,-59.05584314,2.2,0.45,2.2,0.45
161,'            ',500.0,1,1,1,1,0.90705221,-59.03011195,2.2,0.45,2.2,0.45
162,'            ',500.0,1,1,1,1,0.95446497,-55.09844433,2.2,0.45,2.2,0.45
163,'            ',500.0,1,1,1,1,0.92517496,-68.12376824,2.2,0.45,2.2,0.45
164,'            ',500.0,1,1,1,1,0.92553872,-68.14430481,2.2,0.45,2.2,0.45
165,'            ',500.0,1,1,1,1,0.87832739,-65.82611146,2.2,0.45,2.2,0.45
166,'            ',500.0,1,1,1,1,0.87826524,-65.81375586,2.2,0.45,2.2,0.45
167,'            ',138.0,1,1,1,1,0.84477991,-66.61504855,2.2,0.45,2.2,0.45
168,'            ',138.0,2,1,1,1,0.80749876,-61.37770386,2.2,0.45,2.2,0.45
169,'            ',138.0,1,1,1,1,0.80780472,-61.41417222,2.2,0.45,2.2,0.45
170,'            ',138.0,1,1,1,1,0.80265345,-55.53095154,2.2,0.45,2.2,0.45
171,'            ',138.0,1,1,1,1,0.79957161,-68.14477178,2.2,0.45,2.2,0.45
172,'            ',138.0,1,1,1,1,0.95206291,-67.27539762,2.2,0.45,2.2,0.45
173,'            ',32.0,1,1,1,1,0.86948199,-65.05010418,2.2,0.45,2.2,0.45
174,'            ',138.0,1,1,1,1,0.76660393,-57.36308839,2.2,0.45,2.2,0.45
175,'            ',138.0,1,1,1,1,0.79736697,-60.78962288,2.2,0.45,2.2,0.45
176,'            ',138.0,1,1,1,1,0.79751364,-60.79116952,2.2,0.45,2.2,0.45
177,'            ',138.0,1,1,1,1,0.84443295,-65.11966524,2.2,0.45,2.2,0.45
178,'            ',138.0,1,1,1,1,0.84590794,-65.16111179,2.2,0.45,2.2,0.45
179,'            ',138.0,1,1,1,1,0.79293673,-60.47772082,2.2,0.45,2.2,0.45
180,'            ',138.0,1,1,1,1,0.79725097,-60.80827836,2.2,0.45,2.2,0.45
181,'            ',138.0,1,1,1,1,0.76845019,-57.62723264,2.2,0.45,2.2,0.45
182,'            ',138.0,1,1,1,1,0.79969132,-60.97991861,2.2,0.45,2.2,0.45
183,'            ',138.0,1,1,1,1,0.82875839,-67.48170951,2.2,0.45,2.2,0.45
184,'            ',138.0,1,1,1,1,0.83058904,-67.41125957,2.2,0.45,2.2,0.45
185,'            ',138.0,2,1,1,1,0.84050539,-53.80311876,2.2,0.45,2.2,0.45
186,'            ',138.0,1,1,1,1,0.80192306,-61.11798712,2.2,0.45,2.2,0.45
187,'            ',16.0,1,1,1,1,1.04685651,-55.27213239,2.2,0.45,2.2,0.45
188,'            ',138.0,1,1,1,1,0.8624749,-65.70800317,2.2,0.45,2.2,0.45
189,'            ',138.0,1,1,1,1,0.74723602,-69.0549421,2.2,0.45,2.2,0.45
190,'            ',138.0,1,1,1,1,0.95213056,-67.27662007,2.2,0.45,2.2,0.45
191,'            ',138.0,1,1,1,1,0.7901196,-60.19840528,2.2,0.45,2.2,0.45
192,'            ',138.0,1,1,1,1,0.82491601,-63.22481442,2.2,0.45,2.2,0.45
193,'            ',138.0,1,1,1,1,0.81341559,-62.05835402,2.2,0.45,2.2,0.45
194,'            ',138.0,1,1,1,1,0.76636997,-57.38604641,2.2,0.45,2.2,0.45
195,'            ',138.0,1,1,1,1,0.75346031,-68.8223421,2.2,0.45,2.2,0.45
196,'            ',138.0,1,1,1,1,0.74619254,-69.24523691,2.2,0.45,2.2,0.45
197,'            ',138.0,1,1,1,1,0.74697189,-69.08753731,2.2,0.45,2.2,0.45
198,'            ',138.0,1,1,1,1,0.7697298,-68.6403716,2.2,0.45,2.2,0.45
199,'            ',138.0,1,1,1,1,0.75008913,-68.61202662,2.2,0.45,2.2,0.45
200,'            ',138.0,1,1,1,1,0.75026855,-68.61751886,2.2,0.45,2.2,0.45
...
0 / END OF BUS DATA BEGIN LOAD DATA
2,'99',0,1,1,5.023,-2.846,0.0,0.0,0.0,0.0,1,1,0
3,'1',1,1,1,1.064,0.731,0.0,0.0,0.0,0.0,1,1,0
4,'99',0,1,1,10.286,-3.729,0.0,0.0,0.0,0.0,1,1,0
6,'99',0,1,1,30.442,15.809,0.0,0.0,0.0,0.0,1,1,0
9,'1',1,1,1,6.967,14.245,0.0,0.0,0.0,0.0,1,1,0
9,'99',1,1,1,77.742,-53.92,0.0,0.0,0.0,0.0,1,1,0
10,'1',1,1,1,15.895,27.95,0.0,0.0,0.0,0.0,1,1,0
11,'1',1,1,1,4.789,2.875,0.0,0.0,0.0,0.0,1,1,0
12,'1',1,1,1,0.766,1.531,0.0,0.0,0.0,0.0,1,1,0
12,'99',1,1,1,7.269,2.561,0.0,0.0,0.0,0.0,1,1,0
13,'1',1,1,1,2.423,0.953,0.0,0.0,0.0,0.0,1,1,0
14,'1',1,1,1,1.677,0.375,0.0,0.0,0.0,0.0,1,1,0
14,'99',1,1,1,6.15,2.627,0.0,0.0,0.0,0.0,1,1,0
15,'1',1,1,1,0.165,0.038,0.0,0.0,0.0,0.0,1,1,0
17,'1',1,1,1,4.089,1.769,0.0,0.0,0.0,0.0,1,1,0
18,'1',1,1,1,0.942,0.306,0.0,0.0,0.0,0.0,1,1,0
19,'1',1,1,1,0.574,0.191,0.0,0.0,0.0,0.0,1,1,0
20,'1',1,1,1,0.613,-0.207,0.0,0.0,0.0,0.0,1,1,0
20,'99',1,1,1,7.251,-13.417,0.0,0.0,0.0,0.0,1,1,0
21,'1',1,1,1,5.578,1.187,0.0,0.0,0.0,0.0,1,1,0
23,'1',1,1,1,15.313,0.0,0.0,0.0,0.0,0.0,1,1,0
23,'99',1,1,1,0.959,-4.926,0.0,0.0,0.0,0.0,1,1,0
24,'1',1,1,1,3.269,1.922,0.0,0.0,0.0,0.0,1,1,0
25,'1',1,1,1,0.0,-0.153,0.0,0.0,0.0,0.0,1,1,0
26,'1',1,1,1,13.556,4.827,0.0,0.0,0.0,0.0,1,1,0
27,'1',1,1,1,1.719,0.574,0.0,0.0,0.0,0.0,1,1,0
29,'1',1,1,1,3.641,1.42,0.0,0.0,0.0,0.0,1,1,0
31,'1',1,1,1,1.88,0.655,0.0,0.0,0.0,0.0,1,1,0
32,'1',1,1,1,2.699,1.344,0.0,0.0,0.0,0.0,1,1,0
33,'1',1,1,1,2.699,1.769,0.0,0.0,0.0,0.0,1,1,0
35,'1',1,1,1,0.613,0.191,0.0,0.0,0.0,0.0,1,1,0
39,'1',1,1,1,1.803,0.184,0.0,0.0,0.0,0.0,1,1,0
39,'99',0,1,1,4.693,-0.185,0.0,0.0,0.0,0.0,1,1,0
41,'1',1,1,1,0.655,0.23,0.0,0.0,0.0,0.0,1,1,0
42,'1',1,1,1,2.331,0.345,0.0,0.0,0.0,0.0,1,1,0
43,'99',0,1,1,5.485,1.477,0.0,0.0,0.0,0.0,1,1,0
44,'1',1,1,1,1.704,0.299,0.0,0.0,0.0,0.0,1,1,0
44,'99',1,1,1,4.363,2.882,0.0,0.0,0.0,0.0,1,1,0
45,'1',1,1,1,1.895,0.873,0.0,0.0,0.0,0.0,1,1,0
46,'1',1,1,1,3.56,1.194,0.0,0.0,0.0,0.0,1,1,0
46,'99',1,1,1,10.676,4.779,0.0,0.0,0.0,0.0,1,1,0
47,'1',1,1,1,4.483,1.604,0.0,0.0,0.0,0.0,1,1,0
48,'1',1,1,1,0.0,0.057,0.0,0.0,0.0,0.0,1,1,0
49,'1',1,1,1,6.86,1.612,0.0,0.0,0.0,0.0,1,1,0
49,'99',0,1,1,8.997,-1.565,0.0,0.0,0.0,0.0,1,1,0
52,'1',1,1,1,7.117,2.266,0.0,0.0,0.0,0.0,1,1,0
53,'1',1,1,1,3.032,1.233,0.0,0.0,0.0,0.0,1,1,0
54,'1',1,1,1,1.474,0.808,0.0,0.0,0.0,0.0,1,1,0
55,'1',1,1,1,0.123,0.0,0.0,0.0,0.0,0.0,1,1,0
56,'1',1,1,1,2.707,1.003,0.0,0.0,0.0,0.0,1,1,0
57,'1',1,1,1,1.596,0.57,0.0,0.0,0.0,0.0,1,1,0
58,'1',1,1,1,1.516,0.532,0.0,0.0,0.0,0.0,1,1,0
58,'99',1,1,1,17.569,-2.782,0.0,0.0,0.0,0.0,1,1,0
59,'1',1,1,1,2.538,0.854,0.0,0.0,0.0,0.0,1,1,0
60,'1',1,1,1,0.574,0.153,0.0,0.0,0.0,0.0,1,1,0
61,'99',1,1,1,3.437,9.29,0.0,0.0,0.0,0.0,1,1,0
63,'1',1,1,1,1.799,0.593,0.0,0.0,0.0,0.0,1,1,0
64,'1',1,1,1,0.9,0.306,0.0,0.0,0.0,0.0,1,1,0
65,'1',1,1,1,0.819,0.268,0.0,0.0,0.0,0.0,1,1,0
66,'1',1,1,1,2.829,1.045,0.0,0.0,0.0,0.0,1,1,0
67,'1',1,1,1,3.694,1.428,0.0,0.0,0.0,0.0,1,1,0
68,'1',1,1,1,6.585,12.943,0.0,0.0,0.0,0.0,1,1,0
70,'1',1,1,1,9.571,2.68,0.0,0.0,0.0,0.0,1,1,0
75,'1',1,1,1,4.594,11.485,0.0,0.0,0.0,0.0,1,1,0
76,'1',1,1,1,7.622,14.0,0.0,0.0,0.0,0.0,1,1,0
77,'1',1,1,1,4.594,11.485,0.0,0.0,0.0,0.0,1,1,0
83,'1',1,1,1,4.383,1.011,0.0,0.0,0.0,0.0,1,1,0
84,'1',1,1,1,9.919,2.458,0.0,0.0,0.0,0.0,1,1,0
86,'1',1,1,1,2.312,0.926,0.0,0.0,0.0,0.0,1,1,0
86,'99',0,1,1,3.699,2.417,0.0,0.0,0.0,0.0,1,1,0
87,'1',1,1,1,1.156,0.486,0.0,0.0,0.0,0.0,1,1,0
88,'1',1,1,1,2.538,0.245,0.0,0.0,0.0,0.0,1,1,0
89,'1',1,1,1,4.781,1.857,0.0,0.0,0.0,0.0,1,1,0
90,'1',1,1,1,1.39,0.203,0.0,0.0,0.0,0.0,1,1,0
91,'1',1,1,1,1.355,0.444,0.0,0.0,0.0,0.0,1,1,0
92,'1',1,1,1,7.358,12.595,0.0,0.0,0.0,0.0,1,1,0
94,'1',1,1,1,0.877,0.322,0.0,0.0,0.0,0.0,1,1,0
95,'1',1,1,1,1.795,0.731,0.0,0.0,0.0,0.0,1,1,0
96,'1',1,1,1,0.038,-0.302,0.0,0.0,0.0,0.0,1,1,0
97,'1',1,1,1,0.038,0.019,0.0,0.0,0.0,0.0,1,1,0
97,'99',1,1,1,2.096,0.734,0.0,0.0,0.0,0.0,1,1,0
98,'1',1,1,1,1.152,1.918,0.0,0.0,0.0,0.0,1,1,0
98,'99',1,1,1,6.594,7.852,0.0,0.0,0.0,0.0,1,1,0
99,'1',1,1,1,0.004,0.004,0.0,0.0,0.0,0.0,1,1,0
99,'99',1,1,1,4.807,3.545,0.0,0.0,0.0,0.0,1,1,0
100,'1',1,1,1,4.942,1.815,0.0,0.0,0.0,0.0,1,1,0
101,'1',1,1,1,3.587,1.451,0.0,0.0,0.0,0.0,1,1,0
102,'1',1,1,1,5.421,2.178,0.0,0.0,0.0,0.0,1,1,0
103,'1',1,1,1,4.364,1.432,0.0,0.0,0.0,0.0,1,1,0
104,'1',1,1,1,3.985,1.455,0.0,0.0,0.0,0.0,1,1,0
107,'1',1,1,1,2.102,0.245,0.0,0.0,0.0,0.0,1,1,0
108,'1',1,1,1,2.63,0.766,0.0,0.0,0.0,0.0,1,1,0
109,'1',1,1,1,2.151,0.888,0.0,0.0,0.0,0.0,1,1,0
110,'1',1,1,1,1.593,0.647,0.0,0.0,0.0,0.0,1,1,0
111,'1',1,1,1,0.559,0.203,0.0,0.0,0.0,0.0,1,1,0
112,'1',1,1,1,0.685,0.291,0.0,0.0,0.0,0.0,1,1,0
113,'1',1,1,1,0.639,0.283,0.0,0.0,0.0,0.0,1,1,0
114,'1',1,1,1,1.191,0.329,0.0,0.0,0.0,0.0,1,1,0
115,'1',1,1,1,1.826,0.207,0.0,0.0,0.0,0.0,1,1,0
116,'1',1,1,1,2.71,0.685,0.0,0.0,0.0,0.0,1,1,0
117,'1',1,1,1,4.383,1.776,0.0,0.0,0.0,0.0,1,1,0
118,'1',1,1,1,3.227,1.29,0.0,0.0,0.0,0.0,1,1,0
119,'1',1,1,1,2.592,-0.651,0.0,0.0,0.0,0.0,1,1,0
120,'1',1,1,1,8.372,4.847,0.0,0.0,0.0,0.0,1,1,0
121,'1',1,1,1,9.563,8.878,0.0,0.0,0.0,0.0,1,1,0
122,'1',1,1,1,5.578,1.616,0.0,0.0,0.0,0.0,1,1,0
123,'1',1,1,1,6.175,1.815,0.0,0.0,0.0,0.0,1,1,0
124,'1',1,1,1,2.044,0.678,0.0,0.0,0.0,0.0,1,1,0
125,'1',1,1,1,2.171,2.236,0.0,0.0,0.0,0.0,1,1,0
126,'1',1,1,1,2.948,1.21,0.0,0.0,0.0,0.0,1,1,0
128,'1',1,1,1,2.833,0.972,0.0,0.0,0.0,0.0,1,1,0
129,'1',1,1,1,0.459,0.18,0.0,0.0,0.0,0.0,1,1,0
130,'1',1,1,1,2.19,0.888,0.0,0.0,0.0,0.0,1,1,0
131,'1',1,1,1,2.232,0.888,0.0,0.0,0.0,0.0,1,1,0
132,'1',1,1,1,2.393,0.666,0.0,0.0,0.0,0.0,1,1,0
133,'1',1,1,1,2.393,0.666,0.0,0.0,0.0,0.0,1,1,0
134,'1',1,1,1,0.241,0.08,0.0,0.0,0.0,0.0,1,1,0
135,'1',1,1,1,5.026,2.021,0.0,0.0,0.0,0.0,1,1,0
136,'1',1,1,1,3.587,1.382,0.0,0.0,0.0,0.0,1,1,0
137,'1',1,1,1,1.792,0.727,0.0,0.0,0.0,0.0,1,1,0
138,'1',1,1,1,2.473,0.972,0.0,0.0,0.0,0.0,1,1,0
139,'1',1,1,1,8.33,2.335,0.0,0.0,0.0,0.0,1,1,0
140,'1',1,1,1,0.796,0.322,0.0,0.0,0.0,0.0,1,1,0
141,'1',1,1,1,1.037,0.402,0.0,0.0,0.0,0.0,1,1,0
142,'1',1,1,1,1.554,0.203,0.0,0.0,0.0,0.0,1,1,0
146,'1',1,1,1,3.227,1.171,0.0,0.0,0.0,0.0,1,1,0
147,'1',1,1,1,1.436,0.322,0.0,0.0,0.0,0.0,1,1,0
148,'1',1,1,1,10.799,3.955,0.0,0.0,0.0,0.0,1,1,0
149,'1',1,1,1,0.597,0.241,0.0,0.0,0.0,0.0,1,1,0
150,'1',1,1,1,242.711,0.0,0.0,0.0,0.0,0.0,1,1,0
151,'99',1,1,1,31.2,32.883,0.0,0.0,0.0,0.0,1,1,0
156,'99',0,1,1,59.186,27.458,0.0,0.0,0.0,0.0,1,1,0
162,'99',1,1,1,13.289,23.031,0.0,0.0,0.0,0.0,1,1,0
165,'1',1,1,1,4.211,15.313,0.0,0.0,0.0,0.0,1,1,0
166,'1',1,1,1,1.914,3.828,0.0,0.0,0.0,0.0,1,1,0
167,'1',1,1,1,2.653,1.191,0.0,0.0,0.0,0.0,1,1,0
168,'1',1,1,1,5.608,0.383,0.0,0.0,0.0,0.0,1,1,0
169,'1',1,1,1,3.116,0.505,0.0,0.0,0.0,0.0,1,1,0
170,'1',1,1,1,5.425,1.616,0.0,0.0,0.0,0.0,1,1,0
171,'1',1,1,1,1.616,0.383,0.0,0.0,0.0,0.0,1,1,0
172,'99',1,1,1,50.498,21.843,0.0,0.0,0.0,0.0,1,1,0
175,'1',1,1,1,1.998,0.808,0.0,0.0,0.0,0.0,1,1,0
176,'1',1,1,1,0.999,0.383,0.0,0.0,0.0,0.0,1,1,0
177,'1',1,1,1,0.004,0.004,0.0,0.0,0.0,0.0,1,1,0
178,'1',1,1,1,0.004,0.004,0.0,0.0,0.0,0.0,1,1,0
179,'1',1,1,1,5.999,1.998,0.0,0.0,0.0,0.0,1,1,0
180,'1',1,1,1,6.424,1.807,0.0,0.0,0.0,0.0,1,1,0
181,'1',1,1,1,1.616,0.191,0.0,0.0,0.0,0.0,1,1,0
182,'1',1,1,1,4.154,0.383,0.0,0.0,0.0,0.0,1,1,0
183,'1',1,1,1,5.616,1.191,0.0,0.0,0.0,0.0,1,1,0
184,'1',1,1,1,2.886,0.383,0.0,0.0,0.0,0.0,1,1,0
185,'1',1,1,1,0.808,0.191,0.0,0.0,0.0,0.0,1,1,0
186,'1',1,1,1,2.194,0.383,0.0,0.0,0.0,0.0,1,1,0
188,'1',1,1,1,3.618,0.999,0.0,0.0,0.0,0.0,1,1,0
189,'1',1,1,1,1.616,0.383,0.0,0.0,0.0,0.0,1,1,0
191,'1',1,1,1,5.999,0.999,0.0,0.0,0.0,0.0,1,1,0
192,'1',1,1,1,7.614,2.615,0.0,0.0,0.0,0.0,1,1,0
193,'1',1,1,1,3.193,1.037,0.0,0.0,0.0,0.0,1,1,0
194,'1',1,1,1,6.424,2.423,0.0,0.0,0.0,0.0,1,1,0
195,'1',1,1,1,5.616,1.191,0.0,0.0,0.0,0.0,1,1,0
196,'1',1,1,1,1.998,0.0,0.0,0.0,0.0,0.0,1,1,0
196,'99',1,1,1,0.223,-0.086,0.0,0.0,0.0,0.0,1,1,0
197,'1',1,1,1,2.806,0.808,0.0,0.0,0.0,0.0,1,1,0
198,'1',1,1,1,1.998,0.191,0.0,0.0,0.0,0.0,1,1,0
201,'1',1,1,1,3.618,0.383,0.0,0.0,0.0,0.0,1,1,0
202,'1',1,1,1,3.193,0.383,0.0,0.0,0.0,0.0,1,1,0
202,'99',1,1,1,5.046,-0.137,0.0,0.0,0.0,0.0,1,1,0
203,'1',1,1,1,4.001,0.383,0.0,0.0,0.0,0.0,1,1,0
204,'1',1,1,1,3.193,1.191,0.0,0.0,0.0,0.0,1,1,0
206,'1',1,1,1,5.616,1.191,0.0,0.0,0.0,0.0,1,1,0
207,'1',1,1,1,11.653,1.616,0.0,0.0,0.0,0.0,1,1,0
208,'1',1,1,1,7.232,1.807,0.0,0.0,0.0,0.0,1,1,0
209,'1',1,1,1,4.422,0.383,0.0,0.0,0.0,0.0,1,1,0
210,'1',1,1,1,6.807,1.616,0.0,0.0,0.0,0.0,1,1,0
212,'99',1,1,1,0.102,-0.577,0.0,0.0,0.0,0.0,1,1,0
213,'99',1,1,1,1.163,-0.329,0.0,0.0,0.0,0.0,1,1,0
218,'99',1,1,1,5.123,49.764,0.0,0.0,0.0,0.0,1,1,0
221,'99',0,1,1,19.244,5.516,0.0,0.0,0.0,0.0,1,1,0
222,'99',1,1,1,37.498,23.193,0.0,0.0,0.0,0.0,1,1,0
223,'1',1,1,1,3.828,16.844,0.0,0.0,0.0,0.0,1,1,0
224,'1',1,1,1,3.828,16.844,0.0,0.0,0.0,0.0,1,1,0
225,'1',1,1,1,6.967,14.245,0.0,0.0,0.0,0.0,1,1,0
225,'99',0,1,1,1.861,-44.348,0.0,0.0,0.0,0.0,1,1,0
226,'99',0,1,1,15.601,-7.431,0.0,0.0,0.0,0.0,1,1,0
227,'1',1,1,1,0.0,-0.302,0.0,0.0,0.0,0.0,1,1,0
228,'1',1,1,1,0.0,-0.302,0.0,0.0,0.0,0.0,1,1,0
229,'1',1,1,1,1.39,0.498,0.0,0.0,0.0,0.0,1,1,0
231,'99',1,1,1,11.255,-3.734,0.0,0.0,0.0,0.0,1,1,0
232,'99',0,1,1,5.813,1.747,0.0,0.0,0.0,0.0,1,1,0
233,'1',1,1,1,4.089,1.769,0.0,0.0,0.0,0.0,1,1,0
234,'1',1,1,1,2.086,1.573,0.0,0.0,0.0,0.0,1,1,0
235,'1',1,1,1,0.08,0.088,0.0,0.0,0.0,0.0,1,1,0
235,'99',1,1,1,24.635,5.98,0.0,0.0,0.0,0.0,1,1,0
236,'1',1,1,1,0.613,-0.207,0.0,0.0,0.0,0.0,1,1,0
238,'1',1,1,1,21.821,7.389,0.0,0.0,0.0,0.0,1,1,0
241,'99',1,1,1,14.816,3.054,0.0,0.0,0.0,0.0,1,1,0
242,'1',1,1,1,0.452,0.077,0.0,0.0,0.0,0.0,1,1,0
243,'99',1,1,1,7.216,-3.758,0.0,0.0,0.0,0.0,1,1,0
244,'1',1,1,1,1.719,0.574,0.0,0.0,0.0,0.0,1,1,0
246,'1',1,1,1,3.828,16.844,0.0,0.0,0.0,0.0,1,1,0
...
0 / END OF LOAD DATA BEGIN FIXED SHUNT DATA
2,'99',1,0.0,-7.133
4,'99',1,0.0,-9.601
6,'99',1,0.0,41.987
32,'99',1,0.0,-1.306
39,'99',1,0.0,-0.488
43,'99',1,0.0,3.712
49,'99',1,0.0,-4.149
53,'99',1,0.0,-61.98
67,'99',1,0.0,3.708
86,'99',1,0.0,6.325
90,'99',1,0.0,-0.019
153,'99',1,0.0,-11.354
156,'99',1,0.0,75.294
157,'99',1,0.0,-27.072
158,'99',1,0.0,-322.112
161,'99',1,0.0,-124.239
221,'99',1,0.0,13.922
225,'99',1,0.0,-110.36
226,'99',1,0.0,-18.625
232,'99',1,0.0,4.355
245,'99',1,0.0,-10.356
253,'99',1,0.0,6.238
255,'99',1,0.0,7.309
271,'99',1,0.0,5.929
275,'99',1,0.0,84.787
277,'99',1,0.0,110.69
281,'99',1,0.0,2.151
285,'99',1,0.0,-161.346
309,'99',1,0.0,22.813
348,'99',1,0.0,-12.059
374,'99',1,0.0,-345.603
466,'99',1,0.0,-104.053
471,'99',1,0.0,-290.111
478,'99',1,0.0,64.761
577,'99',1,0.0,-7.123
579,'99',1,0.0,-9.607
580,'99',1,0.0,-102.36
581,'99',1,0.0,47.641
583,'99',1,0.0,-2.918
585,'99',1,0.0,13.934
589,'99',1,0.0,3.923
623,'99',1,0.0,8.01
624,'99',1,0.0,-7.008
636,'99',1,0.0,0.009
672,'99',1,0.0,12.795
690,'99',1,0.0,6.841
695,'99',1,0.0,16.47
698,'99',1,0.0,160.079
703,'99',1,0.0,-47.656
718,'99',1,0.0,-21.734
720,'99',1,0.0,20.121
723,'99',1,0.0,8.7
750,'99',1,0.0,13.261
760,'99',1,0.0,64.443
766,'99',1,0.0,115.888
817,'99',1,0.0,11.465
869,'99',1,0.0,5.172
883,'99',1,0.0,11.098
939,'99',1,0.0,11.802
942,'99',1,0.0,7.486
979,'99',1,0.0,14.306
983,'99',1,0.0,-5.456
995,'99',1,0.0,14.167
1012,'99',1,0.0,2.712
1013,'99',1,0.0,-10.135
1054,'99',1,0.0,2.499
1096,'99',1,0.0,-29.377
1135,'99',1,0.0,16.277
1226,'99',1,0.0,307.861
1241,'99',1,0.0,-9.766
1245,'99',1,0.0,28.8
1266,'99',1,0.0,1.091
1267,'99',1,0.0,-13.276
1351,'99',1,0.0,9.622
1359,'99',1,0.0,44.093
1376,'99',1,0.0,62.25
1377,'99',1,0.0,37.157
1384,'99',1,0.0,-0.278
1400,'99',1,0.0,13.892
1495,'99',1,0.0,-1.174
1496,'99',1,0.0,12.766
1525,'99',1,0.0,-18.886
1533,'99',1,0.0,-95.945
1557,'99',1,0.0,-31.028
1565,'99',1,0.0,-52.104
1621,'99',1,0.0,-73.418
1807,'99',1,0.0,-15.963
1877,'99',1,0.0,-5.368
1878,'99',1,0.0,12.724
1880,'99',1,0.0,-5.367
1923,'99',1,0.0,-9.083
1951,'99',1,0.0,0.756
1979,'99',1,0.0,0.624
1998,'99',1,0.0,4.345
1999,'99',1,0.0,17.297
2083,'99',1,0.0,28.513
2093,'99',1,0.0,103.474
2095,'99',1,0.0,-13.183
2109,'99',1,0.0,-38.789
2111,'99',1,0.0,-2.161
2129,'99',1,0.0,-0.089
2146,'99',1,0.0,-19.827
2172,'99',1,0.0,2.864
2174,'99',1,0.0,9.1
2179,'99',1,0.0,94.807
2192,'99',1,0.0,-0.371
2197,'99',1,0.0,5.815
2224,'99',1,0.0,1.293
2230,'99',1,0.0,-11.696
2244,'99',1,0.0,3.661
2246,'99',1,0.0,-32.703
2251,'99',1,0.0,17.159
2258,'99',1,0.0,9.498
2262,'99',1,0.0,-0.418
2269,'99',1,0.0,-361.197
2287,'99',1,0.0,191.001
2293,'99',1,0.0,-120.311
2296,'99',1,0.0,2.477
2297,'99',1,0.0,-130.348
2309,'99',1,0.0,30.957
2311,'99',1,0.0,-63.287
0 / END OF FIXED SHUNT DATA BEGIN GENERATOR DATA
9,'1',0.0,0.0,93.531,-93.531,0.77851691,0,100.0,0.0,1.0,0.0,0.0,1.0,0,100.0,301.471,135.0,1,1.0,0,1.0,0,1.0,0,1.0,0,1.0
10,'1',0.0,0.0,155.693,-155.693,0.77855935,0,100.0,0.0,1.0,0.0,0.0,1.0,0,100.0,501.832,171.516,1,1.0,0,1.0,0,1.0,0,1.0,0,1.0
10,'2',0.0,0.0,162.14,-162.14,0.77855935,0,100.0,0.0,1.0,0.0,0.0,1.0,0,100.0,522.609,178.876,1,1.0,0,1.0,0,1.0,0,1.0,0,1.0
11,'2',0.0,0.0,20.075,-20.075,0.7197922,0,100.0,0.0,1.0,0.0,0.0,1.0,0,100.0,64.706,35.833,1,1.0,0,1.0,0,1.0,0,1.0,0,1.0
12,'1',0.0,0.0,20.075,-20.075,0.74376629,0,100.0,0.0,1.0,0.0,0.0,1.0,0,100.0,64.706,35.833,1,1.0,0,1.0,0,1.0,0,1.0,0,1.0
24,'99',44.58615576,23.32608105,27.194,-27.194,0.84750873,0,100.0,0.0,1.0,0.0,0.0,1.0,1,100.0,87.653,3.0,1,1.0,0,1.0,0,1.0,0,1.0,0,1.0
26,'1',0.0,0.0,5.475,-5.475,0.74385435,0,100.0,0.0,1.0,0.0,0.0,1.0,0,100.0,17.647,3.0,1,1.0,0,1.0,0,1.0,0,1.0,0,1.0
46,'2',8.33038599,1.79562879,4.38,-4.38,0.78347406,0,100.0,0.0,1.0,0.0,0.0,1.0,1,100.0,14.118,3.0,1,1.0,0,1.0,0,1.0,0,1.0,0,1.0
68,'1',178.09267393,90.03272735,93.531,-93.531,0.77618938,0,100.0,0.0,1.0,0.0,0.0,1.0,1,100.0,301.471,135.0,1,1.0,0,1.0,0,1.0,0,1.0,0,1.0
75,'1',0.0,0.0,74.825,-74.825,0.60950122,0,100.0,0.0,1.0,0.0,0.0,1.0,0,100.0,241.176,135.0,1,1.0,0,1.0,0,1.0,0,1.0,0,1.0
76,'3',108.32690973,77.99332151,84.68,-84.68,0.60955336,0,100.0,0.0,1.0,0.0,0.0,1.0,1,100.0,272.941,100.0,1,1.0,0,1.0,0,1.0,0,1.0,0,1.0
77,'1',0.0,0.0,91.25,-91.25,0.52981158,0,100.0,0.0,1.0,0.0,0.0,1.0,0,100.0,294.118,90.0,1,1.0,0,1.0,0,1.0,0,1.0,0,1.0
77,'99',23.08672207,-47.08624448,90.313,-90.313,0.52981158,0,100.0,0.0,1.0,0.0,0.0,1.0,1,100.0,291.099,14.555,1,1.0,0,1.0,0,1.0,0,1.0,0,1.0
78,'99',79.67362372,57.33735058,63.457,-63.457,0.81812463,0,100.0,0.0,1.0,0.0,0.0,1.0,1,100.0,204.535,10.227,1,1.0,0,1.0,0,1.0,0,1.0,0,1.0
92,'1',0.0,0.0,81.03,-81.03,0.54518429,0,100.0,0.0,1.0,0.0,0.0,1.0,0,100.0,261.176,90.0,1,1.0,0,1.0,0,1.0,0,1.0,0,1.0
95,'1',0.0,0.0,104.755,-104.755,0.55892036,0,100.0,0.0,1.0,0.0,0.0,1.0,0,100.0,337.647,16.882,1,1.0,0,1.0,0,1.0,0,1.0,0,1.0
98,'1',0.0,0.0,24.044,-24.044,0.71701536,0,100.0,0.0,1.0,0.0,0.0,1.0,0,100.0,77.5,10.0,1,1.0,0,1.0,0,1.0,0,1.0,0,1.0
98,'2',0.0,0.0,97.455,-97.455,0.71701536,0,100.0,0.0,1.0,0.0,0.0,1.0,0,100.0,314.118,2.0,1,1.0,0,1.0,0,1.0,0,1.0,0,1.0
99,'1',108.07929178,58.05337222,95.63,-95.63,0.68123744,0,100.0,0.0,1.0,0.0,0.0,1.0,1,100.0,308.235,1.0,1,1.0,0,1.0,0,1.0,0,1.0,0,1.0
112,'1',0.0,0.0,101.47,-101.47,0.59810524,0,100.0,0.0,1.0,0.0,0.0,1.0,0,100.0,327.059,16.353,1,1.0,0,1.0,0,1.0,0,1.0,0,1.0
112,'2',0.0,0.0,105.12,-105.12,0.59810524,0,100.0,0.0,1.0,0.0,0.0,1.0,0,100.0,338.824,1.0,1,1.0,0,1.0,0,1.0,0,1.0,0,1.0
120,'1',0.0,0.0,7.3,-7.3,0.62081449,0,100.0,0.0,1.0,0.0,0.0,1.0,0,100.0,23.529,5.0,1,1.0,0,1.0,0,1.0,0,1.0,0,1.0
125,'1',0.0,0.0,23.725,-23.725,0.53166063,0,100.0,0.0,1.0,0.0,0.0,1.0,0,100.0,76.471,40.0,1,1.0,0,1.0,0,1.0,0,1.0,0,1.0
127,'1',0.0,0.0,11.315,-11.315,0.57425061,0,100.0,0.0,1.0,0.0,0.0,1.0,0,100.0,36.471,3.0,1,1.0,0,1.0,0,1.0,0,1.0,0,1.0
128,'1',0.0,0.0,11.315,-11.315,0.57426428,0,100.0,0.0,1.0,0.0,0.0,1.0,0,100.0,36.471,3.0,1,1.0,0,1.0,0,1.0,0,1.0,0,1.0
135,'1',64.2612383,101.54957544,104.39,-104.39,0.74276582,0,100.0,0.0,1.0,0.0,0.0,1.0,1,100.0,336.471,1.0,1,1.0,0,1.0,0,1.0,0,1.0,0,1.0
138,'1',0.0,0.0,94.9,-94.9,0.55792554,0,100.0,0.0,1.0,0.0,0.0,1.0,0,100.0,305.882,15.294,1,1.0,0,1.0,0,1.0,0,1.0,0,1.0
150,'1',0.0,0.0,97.82,-97.82,0.60529205,0,100.0,0.0,1.0,0.0,0.0,1.0,0,100.0,315.294,15.765,1,1.0,0,1.0,0,1.0,0,1.0,0,1.0
165,'1',0.0,0.0,65.335,-65.335,0.87832739,0,100.0,0.0,1.0,0.0,0.0,1.0,0,100.0,210.588,10.529,1,1.0,0,1.0,0,1.0,0,1.0,0,1.0
165,'2',0.0,0.0,65.335,-65.335,0.87832739,0,100.0,0.0,1.0,0.0,0.0,1.0,0,100.0,210.588,10.529,1,1.0,0,1.0,0,1.0,0,1.0,0,1.0
165,'3',0.0,0.0,65.335,-65.335,0.87832739,0,100.0,0.0,1.0,0.0,0.0,1.0,0,100.0,210.588,10.529,1,1.0,0,1.0,0,1.0,0,1.0,0,1.0
166,'1',0.0,0.0,65.335,-65.335,0.87826524,0,100.0,0.0,1.0,0.0,0.0,1.0,0,100.0,210.588,3.6,1,1.0,0,1.0,0,1.0,0,1.0,0,1.0
168,'1',42.6855513,16.59681879,20.075,-20.075,0.80749876,0,100.0,0.0,1.0,0.0,0.0,1.0,1,100.0,64.706,26.0,1,1.0,0,1.0,0,1.0,0,1.0,0,1.0
171,'1',0.0,0.0,103.66,-103.66,0.79957161,0,100.0,0.0,1.0,0.0,0.0,1.0,0,100.0,334.118,16.706,1,1.0,0,1.0,0,1.0,0,1.0,0,1.0
177,'1',0.0,0.0,6.57,-6.57,0.84443295,0,100.0,0.0,1.0,0.0,0.0,1.0,0,100.0,21.176,3.0,1,1.0,0,1.0,0,1.0,0,1.0,0,1.0
178,'1',0.0,0.0,8.03,-8.03,0.84590794,0,100.0,0.0,1.0,0.0,0.0,1.0,0,100.0,25.882,3.0,1,1.0,0,1.0,0,1.0,0,1.0,0,1.0
183,'1',0.0,0.0,95.63,-95.63,0.82875839,0,100.0,0.0,1.0,0.0,0.0,1.0,0,100.0,308.235,10.973,1,1.0,0,1.0,0,1.0,0,1.0,0,1.0
185,'99',144.59010419,95.27693248,99.645,-99.645,0.84050539,0,100.0,0.0,1.0,0.0,0.0,1.0,1,100.0,321.176,3.0,1,1.0,0,1.0,0,1.0,0,1.0,0,1.0
188,'1',0.0,0.0,109.135,-109.135,0.8624749,0,100.0,0.0,1.0,0.0,0.0,1.0,0,100.0,351.765,1.0,1,1.0,0,1.0,0,1.0,0,1.0,0,1.0
194,'1',0.0,0.0,103.66,-103.66,0.76636997,0,100.0,0.0,1.0,0.0,0.0,1.0,0,100.0,334.118,16.706,1,1.0,0,1.0,0,1.0,0,1.0,0,1.0
195,'1',0.0,0.0,93.44,-93.44,0.75346031,0,100.0,0.0,1.0,0.0,0.0,1.0,0,100.0,301.176,3.0,1,1.0,0,1.0,0,1.0,0,1.0,0,1.0
201,'1',0.0,0.0,106.215,-106.215,0.75755448,0,100.0,0.0,1.0,0.0,0.0,1.0,0,100.0,342.353,17.118,1,1.0,0,1.0,0,1.0,0,1.0,0,1.0
207,'1',0.0,0.0,107.31,-107.31,0.84020125,0,100.0,0.0,1.0,0.0,0.0,1.0,0,100.0,345.882,17.294,1,1.0,0,1.0,0,1.0,0,1.0,0,1.0
209,'1',0.0,0.0,95.265,-95.265,0.84172229,0,100.0,0.0,1.0,0.0,0.0,1.0,0,100.0,307.059,15.353,1,1.0,0,1.0,0,1.0,0,1.0,0,1.0
217,'99',127.84074292,58.85221982,62.42,-62.42,0.78807783,0,100.0,0.0,1.0,0.0,0.0,1.0,1,100.0,201.194,10.06,1,1.0,0,1.0,0,1.0,0,1.0,0,1.0
223,'1',0.0,0.0,98.101,-98.101,0.82788814,0,100.0,0.0,1.0,0.0,0.0,1.0,0,100.0,316.2,120.0,1,1.0,0,1.0,0,1.0,0,1.0,0,1.0
224,'1',185.65127926,93.73368737,98.094,-98.094,0.82804498,0,100.0,0.0,1.0,0.0,0.0,1.0,1,100.0,316.177,120.0,1,1.0,0,1.0,0,1.0,0,1.0,0,1.0
225,'1',175.58493683,88.12303809,93.531,-93.531,0.81840719,0,100.0,0.0,1.0,0.0,0.0,1.0,1,100.0,301.471,135.0,1,1.0,0,1.0,0,1.0,0,1.0,0,1.0
246,'1',167.25031215,94.02988612,98.094,-98.094,0.89744515,0,100.0,0.0,1.0,0.0,0.0,1.0,1,100.0,316.177,120.0,1,1.0,0,1.0,0,1.0,0,1.0,0,1.0
248,'99',37.79670784,18.39848133,22.027,-22.027,0.7787339,0,100.0,0.0,1.0,0.0,0.0,1.0,1,100.0,70.999,3.55,1,1.0,0,1.0,0,1.0,0,1.0,0,1.0
252,'1',106.2480599,53.35476049,57.031,-57.031,0.78389431,0,100.0,0.0,1.0,0.0,0.0,1.0,1,100.0,183.824,70.0,1,1.0,0,1.0,0,1.0,0,1.0,0,1.0
252,'2',0.0,0.0,45.625,-45.625,0.78389431,0,100.0,0.0,1.0,0.0,0.0,1.0,0,100.0,147.059,70.0,1,1.0,0,1.0,0,1.0,0,1.0,0,1.0
274,'1',0.0,0.0,108.405,-108.405,0.79639419,0,100.0,0.0,1.0,0.0,0.0,1.0,0,100.0,349.412,17.471,1,1.0,0,1.0,0,1.0,0,1.0,0,1.0
282,'98',23.00189833,479.08797182,500.0,-500.0,0.78719131,0,100.0,0.0,1.0,0.0,0.0,1.0,1,100.0,40.0,3.0,1,1.0,0,1.0,0,1.0,0,1.0,0,1.0
289,'1',0.0,0.0,65.335,-65.335,0.7825276,0,100.0,0.0,1.0,0.0,0.0,1.0,0,100.0,210.588,10.529,1,1.0,0,1.0,0,1.0,0,1.0,0,1.0
289,'2',151.20198337,55.62396966,65.335,-65.335,0.7825276,0,100.0,0.0,1.0,0.0,0.0,1.0,1,100.0,210.588,10.529,1,1.0,0,1.0,0,1.0,0,1.0,0,1.0
289,'3',0.0,0.0,65.335,-65.335,0.7825276,0,100.0,0.0,1.0,0.0,0.0,1.0,0,100.0,210.588,10.529,1,1.0,0,1.0,0,1.0,0,1.0,0,1.0
290,'1',0.0,0.0,65.335,-65.335,0.78262305,0,100.0,0.0,1.0,0.0,0.0,1.0,0,100.0,210.588,10.529,1,1.0,0,1.0,0,1.0,0,1.0,0,1.0
292,'1',41.15738413,15.63927283,20.075,-20.075,0.69045925,0,100.0,0.0,1.0,0.0,0.0,1.0,1,100.0,64.706,26.0,1,1.0,0,1.0,0,1.0,0,1.0,0,1.0
295,'1',0.0,0.0,108.04,-108.04,0.68145421,0,100.0,0.0,1.0,0.0,0.0,1.0,0,100.0,348.235,17.412,1,1.0,0,1.0,0,1.0,0,1.0,0,1.0
297,'97',22.51908713,135.63067086,547.5,-547.5,1.04684177,0,100.0,0.0,1.0,0.0,0.0,1.0,1,100.0,40.0,3.0,1,1.0,0,1.0,0,1.0,0,1.0,0,1.0
301,'1',0.0,0.0,6.57,-6.57,0.75268044,0,100.0,0.0,1.0,0.0,0.0,1.0,0,100.0,21.176,3.0,1,1.0,0,1.0,0,1.0,0,1.0,0,1.0
302,'1',0.0,0.0,8.03,-8.03,0.74825341,0,100.0,0.0,1.0,0.0,0.0,1.0,0,100.0,25.882,3.0,1,1.0,0,1.0,0,1.0,0,1.0,0,1.0
307,'1',0.0,0.0,107.31,-107.31,0.68622111,0,100.0,0.0,1.0,0.0,0.0,1.0,0,100.0,345.882,17.294,1,1.0,0,1.0,0,1.0,0,1.0,0,1.0
311,'97',24.18326323,458.01610721,547.5,-547.5,1.33819313,0,100.0,0.0,1.0,0.0,0.0,1.0,1,100.0,40.0,3.0,1,1.0,0,1.0,0,1.0,0,1.0,0,1.0
312,'1',0.0,0.0,94.17,-94.17,0.69675511,0,100.0,0.0,1.0,0.0,0.0,1.0,0,100.0,303.529,1.0,1,1.0,0,1.0,0,1.0,0,1.0,0,1.0
318,'1',198.70562014,103.30555927,109.135,-109.135,0.67677802,0,100.0,0.0,1.0,0.0,0.0,1.0,1,100.0,351.765,6.73,1,1.0,0,1.0,0,1.0,0,1.0,0,1.0
319,'1',0.0,0.0,96.36,-96.36,0.67737504,0,100.0,0.0,1.0,0.0,0.0,1.0,0,100.0,310.588,15.529,1,1.0,0,1.0,0,1.0,0,1.0,0,1.0
325,'1',0.0,0.0,97.455,-97.455,0.6762614,0,100.0,0.0,1.0,0.0,0.0,1.0,0,100.0,314.118,15.706,1,1.0,0,1.0,0,1.0,0,1.0,0,1.0
331,'1',144.16182599,86.56578105,92.71,-92.71,0.76549923,0,100.0,0.0,1.0,0.0,0.0,1.0,1,100.0,298.824,14.941,1,1.0,0,1.0,0,1.0,0,1.0,0,1.0
333,'1',0.0,0.0,97.455,-97.455,0.68984433,0,100.0,0.0,1.0,0.0,0.0,1.0,0,100.0,314.118,15.706,1,1.0,0,1.0,0,1.0,0,1.0,0,1.0
343,'1',0.0,0.0,147.451,-147.451,0.61929401,0,100.0,0.0,1.0,0.0,0.0,1.0,0,100.0,475.266,23.763,1,1.0,0,1.0,0,1.0,0,1.0,0,1.0
344,'1',0.0,0.0,147.451,-147.451,0.56299455,0,100.0,0.0,1.0,0.0,0.0,1.0,0,100.0,475.266,23.763,1,1.0,0,1.0,0,1.0,0,1.0,0,1.0
345,'1',0.0,0.0,147.467,-147.467,0.61929401,0,100.0,0.0,1.0,0.0,0.0,1.0,0,100.0,475.316,23.766,1,1.0,0,1.0,0,1.0,0,1.0,0,1.0
347,'1',0.0,0.0,134.137,-134.137,0.66622831,0,100.0,0.0,1.0,0.0,0.0,1.0,0,100.0,432.353,21.618,1,1.0,0,1.0,0,1.0,0,1.0,0,1.0
349,'1',163.53609356,80.85744051,98.55,-98.55,0.6831648,0,100.0,0.0,1.0,0.0,0.0,1.0,1,100.0,317.647,11.67,1,1.0,0,1.0,0,1.0,0,1.0,0,1.0
350,'1',0.0,0.0,98.55,-98.55,0.84907787,0,100.0,0.0,1.0,0.0,0.0,1.0,0,100.0,317.647,15.882,1,1.0,0,1.0,0,1.0,0,1.0,0,1.0
351,'1',0.0,0.0,98.55,-98.55,0.84983515,0,100.0,0.0,1.0,0.0,0.0,1.0,0,100.0,317.647,15.882,1,1.0,0,1.0,0,1.0,0,1.0,0,1.0
352,'1',0.0,0.0,98.55,-98.55,0.84983515,0,100.0,0.0,1.0,0.0,0.0,1.0,0,100.0,317.647,15.882,1,1.0,0,1.0,0,1.0,0,1.0,0,1.0
353,'1',234.94554271,92.62871847,110.869,-110.869,0.90155938,0,100.0,0.0,1.0,0.0,0.0,1.0,1,100.0,357.353,17.868,1,1.0,0,1.0,0,1.0,0,1.0,0,1.0
354,'1',0.0,0.0,110.869,-110.869,0.75473588,0,100.0,0.0,1.0,0.0,0.0,1.0,0,100.0,357.353,17.868,1,1.0,0,1.0,0,1.0,0,1.0,0,1.0
355,'1',0.0,0.0,98.961,-98.961,0.6797334,0,100.0,0.0,1.0,0.0,0.0,1.0,0,100.0,318.971,15.949,1,1.0,0,1.0,0,1.0,0,1.0,0,1.0
356,'1',189.32936258,80.96500215,98.961,-98.961,0.81128164,0,100.0,0.0,1.0,0.0,0.0,1.0,1,100.0,318.971,15.949,1,1.0,0,1.0,0,1.0,0,1.0,0,1.0
357,'1',0.0,0.0,98.961,-98.961,0.61793945,0,100.0,0.0,1.0,0.0,0.0,1.0,0,100.0,318.971,15.949,1,1.0,0,1.0,0,1.0,0,1.0,0,1.0
358,'1',257.29163112,108.34496602,126.582,-126.582,0.73362983,0,100.0,0.0,1.0,0.0,0.0,1.0,1,100.0,408.0,20.4,1,1.0,0,1.0,0,1.0,0,1.0,0,1.0
360,'1',0.0,0.0,145.242,-145.242,0.54443882,0,100.0,0.0,1.0,0.0,0.0,1.0,0,100.0,468.145,23.407,1,1.0,0,1.0,0,1.0,0,1.0,0,1.0
361,'1',0.0,0.0,145.242,-145.242,0.59393326,0,100.0,0.0,1.0,0.0,0.0,1.0,0,100.0,468.145,23.407,1,1.0,0,1.0,0,1.0,0,1.0,0,1.0
362,'1',0.0,0.0,145.242,-145.242,0.59393326,0,100.0,0.0,1.0,0.0,0.0,1.0,0,100.0,468.145,23.407,1,1.0,0,1.0,0,1.0,0,1.0,0,1.0
364,'1',264.25154795,115.09528228,132.769,-132.769,0.6718071,0,100.0,0.0,1.0,0.0,0.0,1.0,1,100.0,427.941,21.397,1,1.0,0,1.0,0,1.0,0,1.0,0,1.0
365,'1',0.0,0.0,132.769,-132.769,0.75410429,0,100.0,0.0,1.0,0.0,0.0,1.0,0,100.0,427.941,21.397,1,1.0,0,1.0,0,1.0,0,1.0,0,1.0
366,'1',133.69818271,63.68869078,80.072,-80.072,0.68128046,0,100.0,0.0,1.0,0.0,0.0,1.0,1,100.0,258.088,12.904,1,1.0,0,1.0,0,1.0,0,1.0,0,1.0
367,'1',0.0,0.0,80.072,-80.072,0.84836732,0,100.0,0.0,1.0,0.0,0.0,1.0,0,100.0,258.088,12.904,1,1.0,0,1.0,0,1.0,0,1.0,0,1.0
379,'99',441.32284764,-251.77531705,285.277,-285.277,0.54812234,0,100.0,0.0,1.0,0.0,0.0,1.0,1,100.0,919.508,45.975,1,1.0,0,1.0,0,1.0,0,1.0,0,1.0
385,'99',358.31091505,150.69992661,171.709,-171.709,0.70373183,0,100.0,0.0,1.0,0.0,0.0,1.0,1,100.0,553.454,27.673,1,1.0,0,1.0,0,1.0,0,1.0,0,1.0
392,'1',0.0,0.0,148.427,-148.427,0.68745469,0,100.0,0.0,1.0,0.0,0.0,1.0,0,100.0,478.409,23.92,1,1.0,0,1.0,0,1.0,0,1.0,0,1.0
393,'1',0.0,0.0,148.282,-148.282,0.76383855,0,100.0,0.0,1.0,0.0,0.0,1.0,0,100.0,477.944,23.897,1,1.0,0,1.0,0,1.0,0,1.0,0,1.0
394,'1',0.0,0.0,148.411,-148.411,0.85931837,0,100.0,0.0,1.0,0.0,0.0,1.0,0,100.0,478.359,23.918,1,1.0,0,1.0,0,1.0,0,1.0,0,1.0
395,'1',0.0,0.0,148.387,-148.387,0.76383855,0,100.0,0.0,1.0,0.0,0.0,1.0,0,100.0,478.281,23.914,1,1.0,0,1.0,0,1.0,0,1.0,0,1.0
397,'1',0.0,0.0,134.137,-134.137,0.69841338,0,100.0,0.0,1.0,0.0,0.0,1.0,0,100.0,432.353,21.618,1,1.0,0,1.0,0,1.0,0,1.0,0,1.0
399,'1',0.0,0.0,134.137,-134.137,0.69008569,0,100.0,0.0,1.0,0.0,0.0,1.0,0,100.0,432.353,21.618,1,1.0,0,1.0,0,1.0,0,1.0,0,1.0
400,'1',0.0,0.0,134.137,-134.137,0.76676188,0,100.0,0.0,1.0,0.0,0.0,1.0,0,100.0,432.353,21.618,1,1.0,0,1.0,0,1.0,0,1.0,0,1.0
402,'1',0.0,0.0,98.55,-98.55,0.69205442,0,100.0,0.0,1.0,0.0,0.0,1.0,0,100.0,317.647,15.882,1,1.0,0,1.0,0,1.0,0,1.0,0,1.0
403,'1',0.0,0.0,98.55,-98.55,0.69143774,0,100.0,0.0,1.0,0.0,0.0,1.0,0,100.0,317.647,15.882,1,1.0,0,1.0,0,1.0,0,1.0,0,1.0
404,'1',200.37967466,59.30815836,98.55,-98.55,0.60226727,0,100.0,0.0,1.0,0.0,0.0,1.0,1,100.0,317.647,15.882,1,1.0,0,1.0,0,1.0,0,1.0,0,1.0
405,'1',0.0,0.0,98.55,-98.55,0.69205442,0,100.0,0.0,1.0,0.0,0.0,1.0,0,100.0,317.647,15.882,1,1.0,0,1.0,0,1.0,0,1.0,0,1.0
406,'1',0.0,0.0,110.869,-110.869,0.62857976,0,100.0,0.0,1.0,0.0,0.0,1.0,0,100.0,357.353,17.868,1,1.0,0,1.0,0,1.0,0,1.0,0,1.0
407,'1',242.86880831,55.96318395,110.869,-110.869,0.79218433,0,100.0,0.0,1.0,0.0,0.0,1.0,1,100.0,357.353,17.868,1,1.0,0,1.0,0,1.0,0,1.0,0,1.0
408,'1',0.0,0.0,98.961,-98.961,0.76879698,0,100.0,0.0,1.0,0.0,0.0,1.0,0,100.0,318.971,15.949,1,1.0,0,1.0,0,1.0,0,1.0,0,1.0
409,'1',0.0,0.0,98.961,-98.961,0.62901571,0,100.0,0.0,1.0,0.0,0.0,1.0,0,100.0,318.971,15.949,1,1.0,0,1.0,0,1.0,0,1.0,0,1.0
410,'1',0.0,0.0,98.961,-98.961,0.62901571,0,100.0,0.0,1.0,0.0,0.0,1.0,0,100.0,318.971,15.949,1,1.0,0,1.0,0,1.0,0,1.0,0,1.0
411,'1',0.0,0.0,126.582,-126.582,0.76826415,0,100.0,0.0,1.0,0.0,0.0,1.0,0,100.0,408.0,20.4,1,1.0,0,1.0,0,1.0,0,1.0,0,1.0
414,'1',0.0,0.0,115.659,-115.659,0.69029674,0,100.0,0.0,1.0,0.0,0.0,1.0,0,100.0,372.794,18.64,1,1.0,0,1.0,0,1.0,0,1.0,0,1.0
415,'1',0.0,0.0,115.659,-115.659,0.86287093,0,100.0,0.0,1.0,0.0,0.0,1.0,0,100.0,372.794,3.0,1,1.0,0,1.0,0,1.0,0,1.0,0,1.0
416,'1',0.0,0.0,115.659,-115.659,0.76699638,0,100.0,0.0,1.0,0.0,0.0,1.0,0,100.0,372.794,18.64,1,1.0,0,1.0,0,1.0,0,1.0,0,1.0
417,'1',320.70877319,95.45855828,143.445,-143.445,0.80226189,0,100.0,0.0,1.0,0.0,0.0,1.0,1,100.0,462.353,23.118,1,1.0,0,1.0,0,1.0,0,1.0,0,1.0
418,'1',0.0,0.0,119.081,-119.081,0.69029674,0,100.0,0.0,1.0,0.0,0.0,1.0,0,100.0,383.824,19.191,1,1.0,0,1.0,0,1.0,0,1.0,0,1.0
419,'1',0.0,0.0,119.081,-119.081,0.76699638,0,100.0,0.0,1.0,0.0,0.0,1.0,0,100.0,383.824,3.615,1,1.0,0,1.0,0,1.0,0,1.0,0,1.0
420,'1',0.0,0.0,114.975,-114.975,0.62754249,0,100.0,0.0,1.0,0.0,0.0,1.0,0,100.0,370.588,18.529,1,1.0,0,1.0,0,1.0,0,1.0,0,1.0
421,'1',0.0,0.0,148.443,-148.443,0.76383855,0,100.0,0.0,1.0,0.0,0.0,1.0,0,100.0,478.464,23.923,1,1.0,0,1.0,0,1.0,0,1.0,0,1.0
423,'1',0.0,0.0,30.112,-30.112,0.71515319,0,100.0,0.0,1.0,0.0,0.0,1.0,0,100.0,97.059,4.853,1,1.0,0,1.0,0,1.0,0,1.0,0,1.0
424,'1',55.42256803,16.28914833,30.112,-30.112,0.81260195,0,100.0,0.0,1.0,0.0,0.0,1.0,1,100.0,97.059,4.853,1,1.0,0,1.0,0,1.0,0,1.0,0,1.0
425,'1',0.0,0.0,30.797,-30.797,0.65013926,0,100.0,0.0,1.0,0.0,0.0,1.0,0,100.0,99.265,4.963,1,1.0,0,1.0,0,1.0,0,1.0,0,1.0
426,'1',0.0,0.0,30.797,-30.797,0.79461465,0,100.0,0.0,1.0,0.0,0.0,1.0,0,100.0,99.265,4.963,1,1.0,0,1.0,0,1.0,0,1.0,0,1.0
427,'1',0.0,0.0,30.797,-30.797,0.89394148,0,100.0,0.0,1.0,0.0,0.0,1.0,0,100.0,99.265,4.963,1,1.0,0,1.0,0,1.0,0,1.0,0,1.0
428,'1',0.0,0.0,30.797,-30.797,0.79461465,0,100.0,0.0,1.0,0.0,0.0,1.0,0,100.0,99.265,4.963,1,1.0,0,1.0,0,1.0,0,1.0,0,1.0
430,'1',0.0,0.0,132.769,-132.769,0.6284041,0,100.0,0.0,1.0,0.0,0.0,1.0,0,100.0,427.941,21.397,1,1.0,0,1.0,0,1.0,0,1.0,0,1.0
431,'1',313.71326821,81.27222064,132.769,-132.769,0.58544829,0,100.0,0.0,1.0,0.0,0.0,1.0,1,100.0,427.941,21.397,1,1.0,0,1.0,0,1.0,0,1.0,0,1.0
432,'1',0.0,0.0,80.072,-80.072,0.6284041,0,100.0,0.0,1.0,0.0,0.0,1.0,0,100.0,258.088,12.904,1,1.0,0,1.0,0,1.0,0,1.0,0,1.0
433,'1',0.0,0.0,80.072,-80.072,0.6284041,0,100.0,0.0,1.0,0.0,0.0,1.0,0,100.0,258.088,12.904,1,1.0,0,1.0,0,1.0,0,1.0,0,1.0
444,'99',337.03950333,121.40230807,150.637,-150.637,0.71478075,0,100.0,0.0,1.0,0.0,0.0,1.0,1,100.0,485.535,24.277,1,1.0,0,1.0,0,1.0,0,1.0,0,1.0
445,'99',280.45266437,101.70990485,124.832,-124.832,0.70423796,0,100.0,0.0,1.0,0.0,0.0,1.0,1,100.0,402.359,20.118,1,1.0,0,1.0,0,1.0,0,1.0,0,1.0
452,'1',353.30293311,145.18338351,155.917,-155.917,0.8002074,0,100.0,0.0,1.0,0.0,0.0,1.0,1,100.0,502.554,25.128,1,1.0,0,1.0,0,1.0,0,1.0,0,1.0
453,'1',0.0,0.0,155.856,-155.856,0.75667429,0,100.0,0.0,1.0,0.0,0.0,1.0,0,100.0,502.356,25.118,1,1.0,0,1.0,0,1.0,0,1.0,0,1.0
455,'1',290.90145764,144.30880873,155.644,-155.644,0.73606971,0,100.0,0.0,1.0,0.0,0.0,1.0,1,100.0,501.673,25.084,1,1.0,0,1.0,0,1.0,0,1.0,0,1.0
456,'1',0.0,0.0,155.66,-155.66,0.75145665,0,100.0,0.0,1.0,0.0,0.0,1.0,0,100.0,501.726,25.086,1,1.0,0,1.0,0,1.0,0,1.0,0,1.0
457,'1',0.0,0.0,127.567,-127.567,0.75145665,0,100.0,0.0,1.0,0.0,0.0,1.0,0,100.0,411.176,20.559,1,1.0,0,1.0,0,1.0,0,1.0,0,1.0
458,'1',0.0,0.0,127.567,-127.567,0.91844701,0,100.0,0.0,1.0,0.0,0.0,1.0,0,100.0,411.176,20.559,1,1.0,0,1.0,0,1.0,0,1.0,0,1.0
459,'1',267.58528639,143.90601253,155.49,-155.49,0.81906049,0,100.0,0.0,1.0,0.0,0.0,1.0,1,100.0,501.177,25.059,1,1.0,0,1.0,0,1.0,0,1.0,0,1.0
460,'1',0.0,0.0,125.925,-125.925,0.92482413,0,100.0,0.0,1.0,0.0,0.0,1.0,0,100.0,405.882,20.294,1,1.0,0,1.0,0,1.0,0,1.0,0,1.0
461,'1',0.0,0.0,125.925,-125.925,0.75667429,0,100.0,0.0,1.0,0.0,0.0,1.0,0,100.0,405.882,20.294,1,1.0,0,1.0,0,1.0,0,1.0,0,1.0
462,'1',0.0,0.0,155.811,-155.811,0.83234172,0,100.0,0.0,1.0,0.0,0.0,1.0,0,100.0,502.212,25.111,1,1.0,0,1.0,0,1.0,0,1.0,0,1.0
463,'97',24.33528251,538.66757955,547.5,-547.5,0.97073897,0,100.0,0.0,1.0,0.0,0.0,1.0,1,100.0,40.0,3.0,1,1.0,0,1.0,0,1.0,0,1.0,0,1.0
464,'1',0.0,0.0,155.835,-155.835,1.08729724,0,100.0,0.0,1.0,0.0,0.0,1.0,0,100.0,502.287,25.114,1,1.0,0,1.0,0,1.0,0,1.0,0,1.0
465,'1',0.0,0.0,155.835,-155.835,0.81547293,0,100.0,0.0,1.0,0.0,0.0,1.0,0,100.0,502.287,22.5,1,1.0,0,1.0,0,1.0,0,1.0,0,1.0
468,'99',282.23831358,133.65107902,145.406,-145.406,0.80209352,0,100.0,0.0,1.0,0.0,0.0,1.0,1,100.0,468.673,23.434,1,1.0,0,1.0,0,1.0,0,1.0,0,1.0
469,'99',336.97260752,276.88852099,288.172,-288.172,0.8399957,0,100.0,0.0,1.0,0.0,0.0,1.0,1,100.0,928.836,46.442,1,1.0,0,1.0,0,1.0,0,1.0,0,1.0
470,'99',692.30302538,394.09253514,404.842,-404.842,0.83520667,0,100.0,0.0,1.0,0.0,0.0,1.0,1,100.0,1304.888,65.244,1,1.0,0,1.0,0,1.0,0,1.0,0,1.0
480,'1',0.0,0.0,227.759,-227.759,0.83187712,0,100.0,0.0,1.0,0.0,0.0,1.0,0,100.0,734.113,36.706,1,1.0,0,1.0,0,1.0,0,1.0,0,1.0
488,'99',119.94926637,56.14381709,63.368,-63.368,0.71717678,0,100.0,0.0,1.0,0.0,0.0,1.0,1,100.0,204.248,10.212,1,1.0,0,1.0,0,1.0,0,1.0,0,1.0
489,'99',123.67552918,57.71067529,63.282,-63.282,0.74930947,0,100.0,0.0,1.0,0.0,0.0,1.0,1,100.0,203.969,10.198,1,1.0,0,1.0,0,1.0,0,1.0,0,1.0
507,'99',31.20903252,11.56851808,13.961,-13.961,0.7715803,0,100.0,0.0,1.0,0.0,0.0,1.0,1,100.0,44.999,3.0,1,1.0,0,1.0,0,1.0,0,1.0,0,1.0
509,'1',0.0,0.0,28.47,-28.47,0.79118895,0,100.0,0.0,1.0,0.0,0.0,1.0,0,100.0,91.765,11.0,1,1.0,0,1.0,0,1.0,0,1.0,0,1.0
527,'1',0.0,0.0,31.481,-31.481,0.78906719,0,100.0,0.0,1.0,0.0,0.0,1.0,0,100.0,101.471,21.0,1,1.0,0,1.0,0,1.0,0,1.0,0,1.0
546,'1',0.0,0.0,98.083,-98.083,0.79293413,0,100.0,0.0,1.0,0.0,0.0,1.0,0,100.0,316.143,15.807,1,1.0,0,1.0,0,1.0,0,1.0,0,1.0
558,'99',19.75759481,7.63109247,9.919,-9.919,0.7750097,0,100.0,0.0,1.0,0.0,0.0,1.0,1,100.0,31.969,3.0,1,1.0,0,1.0,0,1.0,0,1.0,0,1.0
588,'1',0.0,0.0,98.094,-98.094,0.80522639,0,100.0,0.0,1.0,0.0,0.0,1.0,0,100.0,316.177,120.0,1,1.0,0,1.0,0,1.0,0,1.0,0,1.0
589,'1',0.0,0.0,98.094,-98.094,0.80514746,0,100.0,0.0,1.0,0.0,0.0,1.0,0,100.0,316.177,120.0,1,1.0,0,1.0,0,1.0,0,1.0,0,1.0
594,'1',0.0,0.0,93.531,-93.531,0.84592592,0,100.0,0.0,1.0,0.0,0.0,1.0,0,100.0,301.471,135.0,1,1.0,0,1.0,0,1.0,0,1.0,0,1.0
595,'1',0.0,0.0,98.094,-98.094,0.84569324,0,100.0,0.0,1.0,0.0,0.0,1.0,0,100.0,316.177,135.0,1,1.0,0,1.0,0,1.0,0,1.0,0,1.0
595,'2',0.0,0.0,93.531,-93.531,0.84569324,0,100.0,0.0,1.0,0.0,0.0,1.0,0,100.0,301.471,135.0,1,1.0,0,1.0,0,1.0,0,1.0,0,1.0
596,'1',0.0,0.0,99.134,-99.134,0.83375583,0,100.0,0.0,1.0,0.0,0.0,1.0,0,100.0,319.529,135.0,1,1.0,0,1.0,0,1.0,0,1.0,0,1.0
596,'2',0.0,0.0,97.048,-97.048,0.83375583,0,100.0,0.0,1.0,0.0,0.0,1.0,0,100.0,312.807,135.0,1,1.0,0,1.0,0,1.0,0,1.0,0,1.0
600,'2',0.0,0.0,20.075,-20.075,0.77937791,0,100.0,0.0,1.0,0.0,0.0,1.0,0,100.0,64.706,35.833,1,1.0,0,1.0,0,1.0,0,1.0,0,1.0
601,'1',45.86232518,15.81166205,20.075,-20.075,0.81822496,0,100.0,0.0,1.0,0.0,0.0,1.0,1,100.0,64.706,35.833,1,1.0,0,1.0,0,1.0,0,1.0,0,1.0
606,'1',0.0,0.0,6.205,-6.205,0.8281915,0,100.0,0.0,1.0,0.0,0.0,1.0,0,100.0,20.0,3.0,1,1.0,0,1.0,0,1.0,0,1.0,0,1.0
630,'1',9.83300878,2.57599474,5.475,-5.475,0.80755926,0,100.0,0.0,1.0,0.0,0.0,1.0,1,100.0,17.647,3.0,1,1.0,0,1.0,0,1.0,0,1.0,0,1.0
634,'1',0.0,0.0,98.094,-98.094,0.63224835,0,100.0,0.0,1.0,0.0,0.0,1.0,0,100.0,316.177,120.0,1,1.0,0,1.0,0,1.0,0,1.0,0,1.0
653,'2',7.86077228,1.79241138,4.38,-4.38,0.81691095,0,100.0,0.0,1.0,0.0,0.0,1.0,1,100.0,14.118,3.0,1,1.0,0,1.0,0,1.0,0,1.0,0,1.0
654,'1',0.0,0.0,92.345,-92.345,0.80533184,0,100.0,0.0,1.0,0.0,0.0,1.0,0,100.0,297.647,14.882,1,1.0,0,1.0,0,1.0,0,1.0,0,1.0
686,'99',53.69045312,26.83191469,30.606,-30.606,0.88180235,0,100.0,0.0,1.0,0.0,0.0,1.0,1,100.0,98.648,4.932,1,1.0,0,1.0,0,1.0,0,1.0,0,1.0
687,'1',0.0,0.0,93.531,-93.531,0.82095266,0,100.0,0.0,1.0,0.0,0.0,1.0,0,100.0,301.471,135.0,1,1.0,0,1.0,0,1.0,0,1.0,0,1.0
689,'2',192.37595135,89.66911744,93.531,-93.531,0.84022515,0,100.0,0.0,1.0,0.0,0.0,1.0,1,100.0,301.471,135.0,1,1.0,0,1.0,0,1.0,0,1.0,0,1.0
694,'1',145.84649101,87.58705725,91.98,-91.98,0.93680181,0,100.0,0.0,1.0,0.0,0.0,1.0,1,100.0,296.471,14.824,1,1.0,0,1.0,0,1.0,0,1.0,0,1.0
695,'1',0.0,0.0,94.17,-94.17,0.79295173,0,100.0,0.0,1.0,0.0,0.0,1.0,0,100.0,303.529,15.176,1,1.0,0,1.0,0,1.0,0,1.0,0,1.0
696,'1',0.0,0.0,97.82,-97.82,0.83659466,0,100.0,0.0,1.0,0.0,0.0,1.0,0,100.0,315.294,15.765,1,1.0,0,1.0,0,1.0,0,1.0,0,1.0
697,'99',234.93415038,140.62714568,145.304,-145.304,0.95904005,0,100.0,0.0,1.0,0.0,0.0,1.0,1,100.0,468.346,23.417,1,1.0,0,1.0,0,1.0,0,1.0,0,1.0
701,'1',0.0,0.0,91.98,-91.98,0.80659508,0,100.0,0.0,1.0,0.0,0.0,1.0,0,100.0,296.471,14.824,1,1.0,0,1.0,0,1.0,0,1.0,0,1.0
704,'2',0.0,0.0,4.745,-4.745,0.81117059,0,100.0,0.0,1.0,0.0,0.0,1.0,0,100.0,15.294,2.0,1,1.0,0,1.0,0,1.0,0,1.0,0,1.0
708,'2',0.0,0.0,24.234,-24.234,0.80538165,0,100.0,0.0,1.0,0.0,0.0,1.0,0,100.0,78.112,26.0,1,1.0,0,1.0,0,1.0,0,1.0,0,1.0
710,'99',50.33041933,24.42583785,27.874,-27.874,0.80286602,0,100.0,0.0,1.0,0.0,0.0,1.0,1,100.0,89.845,4.492,1,1.0,0,1.0,0,1.0,0,1.0,0,1.0
732,'1',0.0,0.0,103.295,-103.295,0.80233752,0,100.0,0.0,1.0,0.0,0.0,1.0,0,100.0,332.941,16.647,1,1.0,0,1.0,0,1.0,0,1.0,0,1.0
733,'1',0.0,0.0,5.475,-5.475,0.83455006,0,100.0,0.0,1.0,0.0,0.0,1.0,0,100.0,17.647,3.0,1,1.0,0,1.0,0,1.0,0,1.0,0,1.0
739,'1',118.96667042,91.90872726,96.36,-96.36,0.89233756,0,100.0,0.0,1.0,0.0,0.0,1.0,1,100.0,310.588,15.529,1,1.0,0,1.0,0,1.0,0,1.0,0,1.0
756,'3',396.537738,108.46062681,157.406,-157.406,0.61199537,0,100.0,0.0,1.0,0.0,0.0,1.0,1,100.0,507.353,240.0,1,1.0,0,1.0,0,1.0,0,1.0,0,1.0
757,'1',0.0,0.0,168.812,-168.812,0.64450963,0,100.0,0.0,1.0,0.0,0.0,1.0,0,100.0,544.118,240.0,1,1.0,0,1.0,0,1.0,0,1.0,0,1.0
757,'2',330.15668811,108.08330616,135.05,-135.05,0.64450963,0,100.0,0.0,1.0,0.0,0.0,1.0,1,100.0,435.294,240.0,1,1.0,0,1.0,0,1.0,0,1.0,0,1.0
758,'1',1052.66000238,563.61109915,617.946,-617.946,0.7092412,0,100.0,0.0,1.0,0.0,0.0,1.0,1,100.0,1991.769,5.0,1,1.0,0,1.0,0,1.0,0,1.0,0,1.0
758,'2',1062.69544782,563.61109915,617.946,-617.946,0.7092412,0,100.0,0.0,1.0,0.0,0.0,1.0,1,100.0,1991.769,5.0,1,1.0,0,1.0,0,1.0,0,1.0,0,1.0
758,'3',1054.92119026,563.61109915,617.946,-617.946,0.7092412,0,100.0,0.0,1.0,0.0,0.0,1.0,1,100.0,1991.769,5.0,1,1.0,0,1.0,0,1.0,0,1.0,0,1.0
759,'1',343.03364822,122.18960068,168.812,-168.812,0.70638339,0,100.0,0.0,1.0,0.0,0.0,1.0,1,100.0,544.118,240.0,1,1.0,0,1.0,0,1.0,0,1.0,0,1.0
759,'2',0.0,0.0,155.125,-155.125,0.70638339,0,100.0,0.0,1.0,0.0,0.0,1.0,0,100.0,500.0,240.0,1,1.0,0,1.0,0,1.0,0,1.0,0,1.0
759,'3',357.5638002,109.24315278,155.125,-155.125,0.70638339,0,100.0,0.0,1.0,0.0,0.0,1.0,1,100.0,500.0,240.0,1,1.0,0,1.0,0,1.0,0,1.0,0,1.0
784,'1',308.25719529,146.35137685,159.688,-159.688,0.57697142,0,100.0,0.0,1.0,0.0,0.0,1.0,1,100.0,514.706,240.0,1,1.0,0,1.0,0,1.0,0,1.0,0,1.0
792,'1',0.0,0.0,10.95,-10.95,0.60452881,0,100.0,0.0,1.0,0.0,0.0,1.0,0,100.0,35.294,3.0,1,1.0,0,1.0,0,1.0,0,1.0,0,1.0
805,'1',0.0,0.0,100.74,-100.74,0.68952094,0,100.0,0.0,1.0,0.0,0.0,1.0,0,100.0,324.706,16.235,1,1.0,0,1.0,0,1.0,0,1.0,0,1.0
805,'2',0.0,0.0,96.36,-96.36,0.68952094,0,100.0,0.0,1.0,0.0,0.0,1.0,0,100.0,310.588,15.529,1,1.0,0,1.0,0,1.0,0,1.0,0,1.0
805,'3',97.0141517,86.39093681,100.01,-100.01,0.68952094,0,100.0,0.0,1.0,0.0,0.0,1.0,1,100.0,322.353,16.118,1,1.0,0,1.0,0,1.0,0,1.0,0,1.0
809,'1',0.0,0.0,21.9,-21.9,0.66309789,0,100.0,0.0,1.0,0.0,0.0,1.0,0,100.0,70.588,25.0,1,1.0,0,1.0,0,1.0,0,1.0,0,1.0
812,'1',84.90113919,84.53435257,97.455,-97.455,0.72434718,0,100.0,0.0,1.0,0.0,0.0,1.0,1,100.0,314.118,1.667,1,1.0,0,1.0,0,1.0,0,1.0,0,1.0
830,'1',0.0,0.0,100.74,-100.74,0.51277348,0,100.0,0.0,1.0,0.0,0.0,1.0,0,100.0,324.706,16.235,1,1.0,0,1.0,0,1.0,0,1.0,0,1.0
...
0 / END OF GENERATOR DATA BEGIN BRANCH DATA
1,2,'1',2e-05,0.00021,0.0,2190.0,3942.0,3942.0,0.0,0.0,0.0,0.0,1,1,0.0,1,1.0,0,1.0,0,1.0,0,1.0
1,10,'1',0.00593,0.04093,0.07215,852.5,1534.5,1534.5,0.0,0.0,0.0,0.0,1,1,0.0,1,1.0,0,1.0,0,1.0,0,1.0
2,507,'1',0.0001,0.01,0.0,209.25,376.65,376.65,0.0,0.0,0.0,0.0,1,1,0.0,1,1.0,0,1.0,0,1.0,0,1.0
3,4,'1',2e-05,0.00021,0.0,2190.0,3942.0,3942.0,0.0,0.0,0.0,0.0,1,1,0.0,1,1.0,0,1.0,0,1.0,0,1.0
3,8,'1',0.00777,0.04128,0.06391,492.5,886.5,886.5,0.0,0.0,0.0,0.0,1,1,0.0,1,1.0,0,1.0,0,1.0,0,1.0
4,1027,'1',0.0001,0.01,0.0,496.95,894.525,894.525,0.0,0.0,0.0,0.0,1,1,0.0,1,1.0,0,1.0,0,1.0,0,1.0
5,6,'1',2e-05,0.00021,0.0,2190.0,3942.0,3942.0,0.0,0.0,0.0,0.0,1,1,0.0,1,1.0,0,1.0,0,1.0,0,1.0
5,9,'1',0.00488,0.03362,0.05961,852.5,1534.5,1534.5,0.0,0.0,0.0,0.0,1,1,0.0,1,1.0,0,1.0,0,1.0,0,1.0
6,217,'1',0.0001,0.01,0.0,1113.775,2004.775,2004.775,0.0,0.0,0.0,0.0,1,1,0.0,1,1.0,0,1.0,0,1.0,0,1.0
7,8,'1',2e-05,0.00021,0.0,2190.0,3942.0,3942.0,0.0,0.0,0.0,0.0,1,1,0.0,1,1.0,0,1.0,0,1.0,0,1.0
7,10,'1',0.00455,0.03157,0.05531,577.5,1039.5,1039.5,0.0,0.0,0.0,0.0,1,1,0.0,1,1.0,0,1.0,0,1.0,0,1.0
9,10,'1',2e-05,0.00021,0.0,2190.0,3942.0,3942.0,0.0,0.0,0.0,0.0,1,1,0.0,1,1.0,0,1.0,0,1.0,0,1.0
9,2095,'1',0.0001,0.01,0.0,351.275,632.275,632.275,0.0,0.0,0.0,0.0,1,1,0.0,1,1.0,0,1.0,0,1.0,0,1.0
11,23,'1',0.03868,0.10116,0.0108,219.025,394.25,394.25,0.0,0.0,0.0,0.0,1,1,0.0,1,1.0,0,1.0,0,1.0,0,1.0
11,26,'1',0.00719,0.02248,0.00246,125.0,225.0,225.0,0.0,0.0,0.0,0.0,1,1,0.0,1,1.0,0,1.0,0,1.0,0,1.0
11,43,'1',0.01636,0.04132,0.0045,125.0,225.0,225.0,0.0,0.0,0.0,0.0,1,1,0.0,1,1.0,0,1.0,0,1.0,0,1.0
12,14,'1',0.00752,0.02207,0.00251,200.55,361.0,361.0,0.0,0.0,0.0,0.0,1,1,0.0,1,1.0,0,1.0,0,1.0,0,1.0
12,25,'1',0.00719,0.02256,0.00247,125.0,225.0,225.0,0.0,0.0,0.0,0.0,1,1,0.0,1,1.0,0,1.0,0,1.0,0,1.0
13,59,'1',0.02256,0.04314,0.004,125.0,225.0,225.0,0.0,0.0,0.0,0.0,1,1,0.0,1,1.0,0,1.0,0,1.0,0,1.0
14,245,'1',0.0001,0.01,0.0,209.25,376.65,376.65,0.0,0.0,0.0,0.0,1,1,0.0,1,1.0,0,1.0,0,1.0,0,1.0
15,16,'1',0.00058,0.00157,0.00021,125.0,225.0,225.0,0.0,0.0,0.0,0.0,1,1,0.0,1,1.0,0,1.0,0,1.0,0,1.0
16,58,'1',0.00107,0.00298,0.0004,281.8,507.25,507.25,0.0,0.0,0.0,0.0,1,1,0.0,1,1.0,0,1.0,0,1.0,0,1.0
16,64,'1',0.00182,0.00529,0.00071,278.475,501.25,501.25,0.0,0.0,0.0,0.0,1,1,0.0,1,1.0,0,1.0,0,1.0,0,1.0
17,20,'1',0.00496,0.0162,0.00164,187.5,337.5,337.5,0.0,0.0,0.0,0.0,1,1,0.0,1,1.0,0,1.0,0,1.0,0,1.0
18,62,'1',0.00033,0.00099,0.00013,125.0,225.0,225.0,0.0,0.0,0.0,0.0,1,1,0.0,1,1.0,0,1.0,0,1.0,0,1.0
19,63,'1',0.00033,0.00091,0.00012,125.0,225.0,225.0,0.0,0.0,0.0,0.0,1,1,0.0,1,1.0,0,1.0,0,1.0,0,1.0
20,28,'1',0.00934,0.0257,0.00253,157.5,283.5,283.5,0.0,0.0,0.0,0.0,1,1,0.0,1,1.0,0,1.0,0,1.0,0,1.0
20,30,'1',0.01504,0.04033,0.00401,157.5,283.5,283.5,0.0,0.0,0.0,0.0,1,1,0.0,1,1.0,0,1.0,0,1.0,0,1.0
21,22,'1',8e-05,0.00083,0.0,1095.0,1971.0,1971.0,0.0,0.0,0.0,0.0,1,1,0.0,1,1.0,0,1.0,0,1.0,0,1.0
21,44,'1',0.00512,0.01669,0.00168,285.0,513.0,513.0,0.0,0.0,0.0,0.0,1,1,0.0,1,1.0,0,1.0,0,1.0,0,1.0
22,46,'1',0.02826,0.0924,0.00933,247.5,445.5,445.5,0.0,0.0,0.0,0.0,1,1,0.0,1,1.0,0,1.0,0,1.0,0,1.0
24,46,'1',0.01669,0.04364,0.00566,265.95,478.7,478.7,0.0,0.0,0.0,0.0,1,1,0.0,1,1.0,0,1.0,0,1.0,0,1.0
24,271,'1',0.0001,0.01,0.0,209.25,376.65,376.65,0.0,0.0,0.0,0.0,1,1,0.0,1,1.0,0,1.0,0,1.0,0,1.0
25,26,'1',8e-05,0.00083,0.0,125.0,225.0,225.0,0.0,0.0,0.0,0.0,1,1,0.0,1,1.0,0,1.0,0,1.0,0,1.0
25,38,'1',0.01595,0.0414,0.00404,125.0,225.0,225.0,0.0,0.0,0.0,0.0,1,1,0.0,1,1.0,0,1.0,0,1.0,0,1.0
26,37,'1',0.01595,0.04132,0.00403,125.0,225.0,225.0,0.0,0.0,0.0,0.0,1,1,0.0,1,1.0,0,1.0,0,1.0,0,1.0
26,41,'1',0.02926,0.0514,0.00489,125.0,225.0,225.0,0.0,0.0,0.0,0.0,1,1,0.0,1,1.0,0,1.0,0,1.0,0,1.0
27,28,'1',0.00554,0.00959,0.00095,125.0,225.0,225.0,0.0,0.0,0.0,0.0,1,1,0.0,1,1.0,0,1.0,0,1.0,0,1.0
28,64,'1',0.0057,0.01479,0.0015,157.5,283.5,283.5,0.0,0.0,0.0,0.0,1,1,0.0,1,1.0,0,1.0,0,1.0,0,1.0
29,30,'1',0.00017,0.00041,6e-05,187.5,337.5,337.5,0.0,0.0,0.0,0.0,1,1,0.0,1,1.0,0,1.0,0,1.0,0,1.0
30,65,'1',8e-05,0.00025,2e-05,187.5,337.5,337.5,0.0,0.0,0.0,0.0,1,1,0.0,1,1.0,0,1.0,0,1.0,0,1.0
31,32,'1',8e-05,0.00083,0.0,1095.0,1971.0,1971.0,0.0,0.0,0.0,0.0,1,1,0.0,1,1.0,0,1.0,0,1.0,0,1.0
31,69,'1',0.01298,0.04074,0.0045,187.5,337.5,337.5,0.0,0.0,0.0,0.0,1,1,0.0,1,1.0,0,1.0,0,1.0,0,1.0
32,530,'1',0.0001,0.01,0.0,209.25,376.65,376.65,0.0,0.0,0.0,0.0,1,1,0.0,1,1.0,0,1.0,0,1.0,0,1.0
33,34,'1',0.00165,0.00537,0.00054,125.0,225.0,225.0,0.0,0.0,0.0,0.0,1,1,0.0,1,1.0,0,1.0,0,1.0,0,1.0
34,54,'1',0.01926,0.06198,0.00647,258.225,464.8,464.8,0.0,0.0,0.0,0.0,1,1,0.0,1,1.0,0,1.0,0,1.0,0,1.0
34,68,'1',0.01041,0.03388,0.00346,285.2,513.35,513.35,0.0,0.0,0.0,0.0,1,1,0.0,1,1.0,0,1.0,0,1.0,0,1.0
35,37,'1',0.0005,0.00107,0.00014,125.0,225.0,225.0,0.0,0.0,0.0,0.0,1,1,0.0,1,1.0,0,1.0,0,1.0,0,1.0
36,38,'1',0.0005,0.00116,0.00014,125.0,225.0,225.0,0.0,0.0,0.0,0.0,1,1,0.0,1,1.0,0,1.0,0,1.0,0,1.0
37,64,'1',0.03174,0.08347,0.00816,125.0,225.0,225.0,0.0,0.0,0.0,0.0,1,1,0.0,1,1.0,0,1.0,0,1.0,0,1.0
38,65,'1',0.03174,0.08347,0.00816,125.0,225.0,225.0,0.0,0.0,0.0,0.0,1,1,0.0,1,1.0,0,1.0,0,1.0,0,1.0
39,66,'1',0.03826,0.04818,0.00455,209.575,377.225,377.225,0.0,0.0,0.0,0.0,1,1,0.0,1,1.0,0,1.0,0,1.0,0,1.0
39,1234,'1',0.0001,0.01,0.0,209.25,376.65,376.65,0.0,0.0,0.0,0.0,1,1,0.0,1,1.0,0,1.0,0,1.0,0,1.0
40,41,'1',8e-05,0.00083,0.0,1095.0,1971.0,1971.0,0.0,0.0,0.0,0.0,1,1,0.0,1,1.0,0,1.0,0,1.0,0,1.0
40,59,'1',0.04025,0.07132,0.00662,117.5,211.5,211.5,0.0,0.0,0.0,0.0,1,1,0.0,1,1.0,0,1.0,0,1.0,0,1.0
42,43,'1',0.00058,0.00099,0.0001,125.0,225.0,225.0,0.0,0.0,0.0,0.0,1,1,0.0,1,1.0,0,1.0,0,1.0,0,1.0
43,2259,'1',0.0001,0.01,0.0,125.0,225.0,225.0,0.0,0.0,0.0,0.0,1,1,0.0,1,1.0,0,1.0,0,1.0,0,1.0
44,45,'1',8e-05,0.00083,0.0,1095.0,1971.0,1971.0,0.0,0.0,0.0,0.0,1,1,0.0,1,1.0,0,1.0,0,1.0,0,1.0
44,1951,'1',0.0001,0.01,0.0,209.25,376.65,376.65,0.0,0.0,0.0,0.0,1,1,0.0,1,1.0,0,1.0,0,1.0,0,1.0
45,52,'1',0.03438,0.11107,0.01156,125.0,225.0,225.0,0.0,0.0,0.0,0.0,1,1,0.0,1,1.0,0,1.0,0,1.0,0,1.0
45,70,'1',0.01041,0.03405,0.00418,285.0,513.0,513.0,0.0,0.0,0.0,0.0,1,1,0.0,1,1.0,0,1.0,0,1.0,0,1.0
46,49,'1',0.03488,0.0881,0.01298,294.3,529.75,529.75,0.0,0.0,0.0,0.0,1,1,0.0,1,1.0,0,1.0,0,1.0,0,1.0
46,53,'1',0.00669,0.0162,0.00254,390.35,702.6,702.6,0.0,0.0,0.0,0.0,1,1,0.0,1,1.0,0,1.0,0,1.0,0,1.0
46,2246,'1',0.0001,0.01,0.0,209.25,376.65,376.65,0.0,0.0,0.0,0.0,1,1,0.0,1,1.0,0,1.0,0,1.0,0,1.0
47,48,'1',8e-05,0.00083,0.0,1095.0,1971.0,1971.0,0.0,0.0,0.0,0.0,1,1,0.0,1,1.0,0,1.0,0,1.0,0,1.0
47,69,'1',0.0038,0.01083,0.00145,187.5,337.5,337.5,0.0,0.0,0.0,0.0,1,1,0.0,1,1.0,0,1.0,0,1.0,0,1.0
48,61,'1',0.00711,0.02074,0.00265,187.5,337.5,337.5,0.0,0.0,0.0,0.0,1,1,0.0,1,1.0,0,1.0,0,1.0,0,1.0
49,1344,'1',0.0001,0.01,0.0,216.75,390.15,390.15,0.0,0.0,0.0,0.0,1,1,0.0,1,1.0,0,1.0,0,1.0,0,1.0
50,51,'1',0.00017,0.00041,5e-05,125.0,225.0,225.0,0.0,0.0,0.0,0.0,1,1,0.0,1,1.0,0,1.0,0,1.0,0,1.0
51,57,'1',0.00066,0.00107,0.00018,244.55,440.2,440.2,0.0,0.0,0.0,0.0,1,1,0.0,1,1.0,0,1.0,0,1.0,0,1.0
51,59,'1',0.02702,0.05752,0.00544,244.55,440.2,440.2,0.0,0.0,0.0,0.0,1,1,0.0,1,1.0,0,1.0,0,1.0,0,1.0
...